@<TRIPOS>MOLECULE
*****
 27 29 0 0 0
SMALL
GASTEIGER

@<TRIPOS>ATOM
      1 O           0.0000    0.0000    0.0000 O.co2   1  UNL1       -0.2389
      2 C           0.0000    0.0000    0.0000 C.2     1  UNL1        0.4048
      3 CA          0.0000    0.0000    0.0000 C.ar    1  UNL1        0.1571
      4 N           0.0000    0.0000    0.0000 N.ar    1  UNL1       -0.2375
      5 C           0.0000    0.0000    0.0000 C.ar    1  UNL1        0.0991
      6 C           0.0000    0.0000    0.0000 C.ar    1  UNL1        0.0204
      7 C           0.0000    0.0000    0.0000 C.ar    1  UNL1       -0.0006
      8 C           0.0000    0.0000    0.0000 C.ar    1  UNL1        0.0064
      9 C           0.0000    0.0000    0.0000 C.3     1  UNL1        0.0544
     10 C           0.0000    0.0000    0.0000 C.ar    1  UNL1       -0.0178
     11 C           0.0000    0.0000    0.0000 C.ar    1  UNL1       -0.0043
     12 C           0.0000    0.0000    0.0000 C.ar    1  UNL1       -0.0046
     13 C           0.0000    0.0000    0.0000 C.ar    1  UNL1       -0.0225
     14 C           0.0000    0.0000    0.0000 C.3     1  UNL1        0.0224
     15 C           0.0000    0.0000    0.0000 C.3     1  UNL1        0.0062
     16 C           0.0000    0.0000    0.0000 C.3     1  UNL1        0.0256
     17 C           0.0000    0.0000    0.0000 C.3     1  UNL1        0.1472
     18 S           0.0000    0.0000    0.0000 S.O2    1  UNL1        0.0556
     19 O           0.0000    0.0000    0.0000 O.2     1  UNL1       -0.1562
     20 N           0.0000    0.0000    0.0000 N.3     1  UNL1       -0.0805
     21 C           0.0000    0.0000    0.0000 C.3     1  UNL1        0.1358
     22 O           0.0000    0.0000    0.0000 O.2     1  UNL1       -0.1562
     23 C           0.0000    0.0000    0.0000 C.3     1  UNL1        0.0256
     24 C           0.0000    0.0000    0.0000 C.3     1  UNL1        0.0062
     25 C           0.0000    0.0000    0.0000 C.ar    1  UNL1       -0.0046
     26 C           0.0000    0.0000    0.0000 C.ar    1  UNL1       -0.0043
     27 OXT         0.0000    0.0000    0.0000 O.co2   1  UNL1       -0.2389
@<TRIPOS>BOND
     1     1     2   ar
     2     2     3    1
     3     3     4   ar
     4     4     5   ar
     5     5     6   ar
     6     6     7   ar
     7     7     8   ar
     8     3     8   ar
     9     8     9    1
    10     9    10    1
    11    10    11   ar
    12    11    12   ar
    13    12    13   ar
    14    13    14    1
    15    14    15    1
    16    15    16    1
    17    16    17    1
    18    17    18    1
    19    18    19    2
    20    18    20    1
    21    20    21    1
    22    18    22    2
    23    17    23    1
    24    23    24    1
    25    14    24    1
    26    13    25   ar
    27    25    26   ar
    28    10    26   ar
    29     2    27   ar
