@<TRIPOS>MOLECULE
*****
 43 50 0 0 0
SMALL
GASTEIGER

@<TRIPOS>ATOM
      1 SI          0.9708    1.6258   -0.0558 Si      1  UNL1        0.0000
      2 C           2.4384    0.3914    0.0011 C.2     1  UNL1        0.0000
      3 C           1.9669   -0.8724   -0.0187 C.2     1  UNL1        0.0000
      4 C           0.5008   -0.9864   -0.0769 C.ar    1  UNL1        0.0000
      5 C          -0.2747    0.2084   -0.1064 C.ar    1  UNL1        0.0000
      6 C          -1.7124    0.2155   -0.1633 C.ar    1  UNL1        0.0000
      7 C          -2.6358    1.3127   -0.1989 C.ar    1  UNL1        0.0000
      8 C          -2.3597    2.6660   -0.1867 C.ar    1  UNL1        0.0000
      9 N          -3.5565    3.3703   -0.2334 N.ar    1  UNL1        0.0000
     10 C          -4.6192    2.5000   -0.2763 C.ar    1  UNL1        0.0000
     11 C          -4.0457    1.2660   -0.2547 C.ar    1  UNL1        0.0000
     12 C          -4.6849    0.0082   -0.2812 C.ar    1  UNL1        0.0000
     13 C          -6.0361   -0.3223   -0.3351 C.ar    1  UNL1        0.0000
     14 C          -6.0559   -1.7031   -0.3371 C.ar    1  UNL1        0.0000
     15 N          -4.7562   -2.1624   -0.2861 N.ar    1  UNL1        0.0000
     16 C          -3.8684   -1.1024   -0.2500 C.ar    1  UNL1        0.0000
     17 C          -2.4458   -1.0438   -0.1936 C.ar    1  UNL1        0.0000
     18 C          -1.6833   -2.2602   -0.1645 C.ar    1  UNL1        0.0000
     19 N          -2.1678   -3.5196   -0.1849 N.ar    1  UNL1        0.0000
     20 S          -0.8632   -4.5407   -0.1343 S.2     1  UNL1        0.0000
     21 N           0.3830   -3.4511   -0.0839 N.ar    1  UNL1        0.0000
     22 C          -0.1745   -2.2277   -0.1048 C.ar    1  UNL1        0.0000
     23 C           3.8011    0.8112    0.0554 C.ar    1  UNL1        0.0000
     24 S           4.2820    2.5090    0.0763 S.2     1  UNL1        0.0000
     25 C           5.9716    2.1782    0.1426 C.ar    1  UNL1        0.0000
     26 C           6.1148    0.8420    0.1468 C.ar    1  UNL1        0.0000
     27 C           7.1490   -0.1181    0.1866 C.ar    1  UNL1        0.0000
     28 C           6.5301   -1.3801    0.1607 C.ar    1  UNL1        0.0000
     29 N           5.1410   -1.2703    0.1060 N.ar    1  UNL1        0.0000
     30 C           4.9575    0.0881    0.1003 C.ar    1  UNL1        0.0000
     31 H           0.8528    2.4205    1.1946 H       1  UNL1        0.0000
     32 H           0.9519    2.4230   -1.3100 H       1  UNL1        0.0000
     33 H           2.5371   -1.7850    0.0031 H       1  UNL1        0.0000
     34 H          -1.4475    3.2388   -0.1500 H       1  UNL1        0.0000
     35 H          -3.6315    4.3795   -0.2354 H       1  UNL1        0.0000
     36 H          -5.6420    2.8472   -0.3165 H       1  UNL1        0.0000
     37 H          -6.8952    0.3330   -0.3684 H       1  UNL1        0.0000
     38 H          -6.8791   -2.4040   -0.3704 H       1  UNL1        0.0000
     39 H          -4.4674   -3.1334   -0.2756 H       1  UNL1        0.0000
     40 H           6.7112    2.9648    0.1727 H       1  UNL1        0.0000
     41 H           8.2158    0.0562    0.2289 H       1  UNL1        0.0000
     42 H           6.9743   -2.3672    0.1772 H       1  UNL1        0.0000
     43 H           4.4525   -2.0058    0.0779 H       1  UNL1        0.0000
@<TRIPOS>BOND
     1     1     2    1
     2     2     3    2
     3     3     4    1
     4     4     5   ar
     5     5     6   ar
     6     6     7   ar
     7     7     8   ar
     8     8     9   ar
     9     9    10   ar
    10    10    11   ar
    11    11    12   ar
    12    12    13   ar
    13    13    14   ar
    14    14    15   ar
    15    15    16   ar
    16    16    17   ar
    17    17    18   ar
    18    18    19   ar
    19    19    20   ar
    20    20    21   ar
    21    21    22   ar
    22     2    23    1
    23    23    24   ar
    24    24    25   ar
    25    25    26   ar
    26    26    27   ar
    27    27    28   ar
    28    28    29   ar
    29    29    30   ar
    30     5     1    1
    31    17     6   ar
    32    22    18   ar
    33    30    23   ar
    34    22     4   ar
    35    30    26   ar
    36    11     7   ar
    37    16    12   ar
    38     1    31    1
    39     1    32    1
    40     3    33    1
    41     8    34    1
    42     9    35    1
    43    10    36    1
    44    13    37    1
    45    14    38    1
    46    15    39    1
    47    25    40    1
    48    27    41    1
    49    28    42    1
    50    29    43    1
