@<TRIPOS>MOLECULE
*****
 44 51 0 0 0
SMALL
GASTEIGER

@<TRIPOS>ATOM
      1 SI          1.8454    1.3025    3.7487 Si      1  UNL1        0.0000
      2 C           2.8416    1.1152    2.1981 C.2     1  UNL1        0.0000
      3 C           2.0749    0.7790    1.1389 C.ar    1  UNL1        0.0000
      4 C           2.5943    0.5604   -0.2158 C.ar    1  UNL1        0.0000
      5 C           1.7095    0.2512   -1.1864 C.ar    1  UNL1        0.0000
      6 C           0.2623    0.1191   -0.9493 C.ar    1  UNL1        0.0000
      7 N          -0.4363   -0.1933   -2.0567 N.ar    1  UNL1        0.0000
      8 C          -1.7695   -0.3478   -1.9677 C.ar    1  UNL1        0.0000
      9 C          -2.4580   -0.1948   -0.7554 C.ar    1  UNL1        0.0000
     10 C          -1.7084    0.1342    0.3972 C.ar    1  UNL1        0.0000
     11 S          -2.7635    0.2704    1.7716 S.2     1  UNL1        0.0000
     12 C          -4.1863   -0.0892    0.8988 C.ar    1  UNL1        0.0000
     13 C          -5.5245   -0.1633    1.4010 C.ar    1  UNL1        0.0000
     14 C          -6.6218   -0.4712    0.5753 C.ar    1  UNL1        0.0000
     15 C          -6.2245   -0.6808   -0.7323 C.ar    1  UNL1        0.0000
     16 C          -7.0623   -0.9981   -1.7732 C.ar    1  UNL1        0.0000
     17 O          -6.3403   -1.1353   -2.9305 O.2     1  UNL1        0.0000
     18 C          -5.0214   -0.9024   -2.6253 C.ar    1  UNL1        0.0000
     19 C          -4.9386   -0.6256   -1.2946 C.ar    1  UNL1        0.0000
     20 C          -3.8384   -0.3078   -0.4220 C.ar    1  UNL1        0.0000
     21 C          -0.3020    0.3032    0.3236 C.ar    1  UNL1        0.0000
     22 C           0.6152    0.6518    1.4411 C.ar    1  UNL1        0.0000
     23 C           0.3256    0.8879    2.7389 C.2     1  UNL1        0.0000
     24 C           3.9628    0.6360   -0.5951 C.ar    1  UNL1        0.0000
     25 S           4.6489    1.8559   -1.6256 S.2     1  UNL1        0.0000
     26 C           6.2588    1.1981   -1.5165 C.ar    1  UNL1        0.0000
     27 C           6.2036    0.1118   -0.7176 C.ar    1  UNL1        0.0000
     28 C           7.0392   -0.8828   -0.1866 C.ar    1  UNL1        0.0000
     29 C           6.1935   -1.6889    0.5867 C.ar    1  UNL1        0.0000
     30 O           4.8712   -1.2841    0.5929 O.2     1  UNL1        0.0000
     31 C           4.9601   -0.1919   -0.2177 C.ar    1  UNL1        0.0000
     32 H           1.8187    2.6973    4.2509 H       1  UNL1        0.0000
     33 H           2.1463    0.2635    4.7625 H       1  UNL1        0.0000
     34 H           3.9101    1.2625    2.2103 H       1  UNL1        0.0000
     35 H           2.0241    0.0678   -2.2100 H       1  UNL1        0.0000
     36 H          -2.2538   -0.5982   -2.9026 H       1  UNL1        0.0000
     37 H          -5.7011    0.0251    2.4595 H       1  UNL1        0.0000
     38 H          -7.6372   -0.5301    0.9431 H       1  UNL1        0.0000
     39 H          -8.1271   -1.1568   -1.8727 H       1  UNL1        0.0000
     40 H          -4.3445   -0.9815   -3.4616 H       1  UNL1        0.0000
     41 H          -0.6189    0.8745    3.2487 H       1  UNL1        0.0000
     42 H           7.0898    1.6545   -2.0348 H       1  UNL1        0.0000
     43 H           8.1012   -1.0248   -0.3251 H       1  UNL1        0.0000
     44 H           6.3812   -2.5732    1.1819 H       1  UNL1        0.0000
@<TRIPOS>BOND
     1     1     2    1
     2     2     3    2
     3     3     4   ar
     4     4     5   ar
     5     5     6   ar
     6     6     7   ar
     7     7     8   ar
     8     8     9   ar
     9     9    10   ar
    10    10    11   ar
    11    11    12   ar
    12    12    13   ar
    13    13    14   ar
    14    14    15   ar
    15    15    16   ar
    16    16    17   ar
    17    17    18   ar
    18    18    19   ar
    19    19    20   ar
    20    10    21   ar
    21    21    22   ar
    22    22    23    2
    23     4    24    1
    24    24    25   ar
    25    25    26   ar
    26    26    27   ar
    27    27    28   ar
    28    28    29   ar
    29    29    30   ar
    30    30    31   ar
    31    23     1    1
    32    31    24   ar
    33    22     3   ar
    34    31    27   ar
    35    21     6   ar
    36    20     9   ar
    37    20    12   ar
    38    19    15   ar
    39     1    32    1
    40     1    33    1
    41     2    34    1
    42     5    35    1
    43     8    36    1
    44    13    37    1
    45    14    38    1
    46    16    39    1
    47    18    40    1
    48    23    41    1
    49    26    42    1
    50    28    43    1
    51    29    44    1
