@<TRIPOS>MOLECULE
*****
 43 49 0 0 0
SMALL
GASTEIGER

@<TRIPOS>ATOM
      1 C          -5.4109   -2.0654   -0.3783 C.3     1  UNL1       -0.0148
      2 C          -6.1708   -0.7822   -0.1949 C.2     1  UNL1       -0.0725
      3 C          -5.3092    0.2429   -0.2096 C.ar    1  UNL1       -0.0212
      4 C          -5.5566    1.6530   -0.0588 C.ar    1  UNL1       -0.0543
      5 C          -4.4950    2.4811   -0.0962 C.ar    1  UNL1       -0.0606
      6 C          -3.1266    1.9878   -0.2893 C.ar    1  UNL1       -0.0537
      7 C          -2.8166    0.6753   -0.4523 C.ar    1  UNL1       -0.0141
      8 C          -1.4325    0.2825   -0.6395 C.2     1  UNL1       -0.0333
      9 C          -0.9572   -0.4867   -1.6350 C.2     1  UNL1       -0.0320
     10 C           0.4683   -0.6453   -1.4222 C.ar    1  UNL1        0.0682
     11 N           1.2582   -1.3633   -2.2327 N.ar    1  UNL1       -0.2545
     12 C           2.5629   -1.3971   -1.8672 C.ar    1  UNL1        0.0395
     13 C           3.0858   -0.7467   -0.7360 C.ar    1  UNL1        0.0440
     14 C           4.4679   -0.8427   -0.4385 C.ar    1  UNL1        0.1445
     15 O           5.4332   -1.5225   -1.1398 O.2     1  UNL1       -0.4622
     16 C           6.6172   -1.3328   -0.4816 C.ar    1  UNL1        0.0932
     17 C           6.4512   -0.5421    0.6387 C.ar    1  UNL1       -0.0155
     18 C           5.0900   -0.2510    0.6374 C.ar    1  UNL1        0.0290
     19 C           4.2824    0.5153    1.5179 C.ar    1  UNL1        0.0005
     20 C           4.7335    1.1657    2.6275 C.ar    1  UNL1       -0.0159
     21 S           3.4019    1.9551    3.3775 S.2     1  UNL1       -0.1038
     22 C           2.2886    1.3864    2.1800 C.ar    1  UNL1       -0.0160
     23 C           2.8943    0.6090    1.2153 C.ar    1  UNL1       -0.0020
     24 C           2.2119    0.0088    0.1063 C.ar    1  UNL1        0.0008
     25 C           0.8628    0.0424   -0.2757 C.ar    1  UNL1       -0.0092
     26 C          -0.3366    0.7068    0.3224 C.3     1  UNL1        0.0008
     27 C          -3.9486   -0.2530   -0.4043 C.ar    1  UNL1       -0.0144
     28 C          -3.9886   -1.5920   -0.4954 C.2     1  UNL1       -0.0720
     29 H          -5.5359   -2.7233    0.4868 H       1  UNL1        0.0350
     30 H          -5.7287   -2.5852   -1.2869 H       1  UNL1        0.0350
     31 H          -7.2397   -0.7163   -0.0662 H       1  UNL1        0.0581
     32 H          -6.5670    2.0170    0.0808 H       1  UNL1        0.0624
     33 H          -4.6278    3.5533    0.0111 H       1  UNL1        0.0618
     34 H          -2.3583    2.7557   -0.3199 H       1  UNL1        0.0624
     35 H          -1.4917   -0.9301   -2.4580 H       1  UNL1        0.0642
     36 H           3.2022   -1.9795   -2.5271 H       1  UNL1        0.0837
     37 H           7.4730   -1.8188   -0.9302 H       1  UNL1        0.1030
     38 H           7.2228   -0.2409    1.3315 H       1  UNL1        0.0655
     39 H           5.7288    1.2327    3.0439 H       1  UNL1        0.0700
     40 H           1.2547    1.6759    2.2851 H       1  UNL1        0.0700
     41 H          -0.2120    1.7938    0.3304 H       1  UNL1        0.0362
     42 H          -0.5375    0.3259    1.3286 H       1  UNL1        0.0362
     43 H          -3.1438   -2.2494   -0.6299 H       1  UNL1        0.0581
@<TRIPOS>BOND
     1     1     2    1
     2     2     3    2
     3     3     4   ar
     4     4     5   ar
     5     5     6   ar
     6     6     7   ar
     7     7     8    1
     8     8     9    2
     9     9    10    1
    10    10    11   ar
    11    11    12   ar
    12    12    13   ar
    13    13    14   ar
    14    14    15   ar
    15    15    16   ar
    16    16    17   ar
    17    17    18   ar
    18    18    19   ar
    19    19    20   ar
    20    20    21   ar
    21    21    22   ar
    22    22    23   ar
    23    23    24   ar
    24    24    25   ar
    25    25    26    1
    26     7    27   ar
    27    27    28    2
    28    28     1    1
    29    27     3   ar
    30    26     8    1
    31    25    10   ar
    32    24    13   ar
    33    18    14   ar
    34    23    19   ar
    35     1    29    1
    36     1    30    1
    37     2    31    1
    38     4    32    1
    39     5    33    1
    40     6    34    1
    41     9    35    1
    42    12    36    1
    43    16    37    1
    44    17    38    1
    45    20    39    1
    46    22    40    1
    47    26    41    1
    48    26    42    1
    49    28    43    1
