@<TRIPOS>MOLECULE
*****
 41 47 0 0 0
SMALL
GASTEIGER

@<TRIPOS>ATOM
      1 C           5.1130    2.4614    0.4187 C.3     1  UNL1       -0.0148
      2 C           6.1109    1.3402    0.4829 C.2     1  UNL1       -0.0725
      3 C           5.4598    0.1710    0.4353 C.ar    1  UNL1       -0.0212
      4 C           5.9803   -1.1710    0.4485 C.ar    1  UNL1       -0.0543
      5 C           5.0971   -2.1846    0.3679 C.ar    1  UNL1       -0.0606
      6 C           3.6507   -1.9542    0.2775 C.ar    1  UNL1       -0.0537
      7 C           3.0851   -0.7193    0.2751 C.ar    1  UNL1       -0.0140
      8 C           1.6429   -0.5919    0.1890 C.2     1  UNL1       -0.0317
      9 C           0.8508    0.1388    1.0193 C.2     1  UNL1       -0.0149
     10 C          -0.4690   -0.0171    0.5477 C.ar    1  UNL1        0.1334
     11 O          -1.6915    0.4338    0.9086 O.2     1  UNL1       -0.4539
     12 C          -2.5363   -0.1302   -0.0204 C.ar    1  UNL1        0.1513
     13 C          -1.8535   -0.9039   -0.9250 C.ar    1  UNL1        0.0626
     14 S          -2.9237   -1.6186   -2.1018 S.2     1  UNL1       -0.0846
     15 C          -4.3129   -0.8600   -1.3601 C.ar    1  UNL1        0.0242
     16 C          -5.6931   -0.9232   -1.7230 C.ar    1  UNL1       -0.0466
     17 C          -6.6907   -0.2287   -0.9888 C.ar    1  UNL1       -0.0499
     18 C          -6.1679    0.4892    0.0831 C.ar    1  UNL1        0.0206
     19 C          -6.8704    1.2591    0.9783 C.ar    1  UNL1        0.0994
     20 O          -6.0122    1.8155    1.9001 O.2     1  UNL1       -0.4698
     21 C          -4.7391    1.3958    1.5915 C.ar    1  UNL1        0.1001
     22 C          -4.8334    0.5975    0.4975 C.ar    1  UNL1        0.0316
     23 C          -3.8946   -0.1162   -0.2746 C.ar    1  UNL1        0.0428
     24 C          -0.5128   -0.8272   -0.5525 C.ar    1  UNL1        0.0165
     25 C           0.8209   -1.3027   -0.9229 C.3     1  UNL1        0.0029
     26 C           4.0202    0.4057    0.3467 C.ar    1  UNL1       -0.0144
     27 C           3.8019    1.7304    0.3265 C.2     1  UNL1       -0.0720
     28 H           5.2781    3.0845   -0.4652 H       1  UNL1        0.0350
     29 H           5.1560    3.0798    1.3200 H       1  UNL1        0.0350
     30 H           7.1794    1.4740    0.5471 H       1  UNL1        0.0581
     31 H           7.0478   -1.3409    0.5175 H       1  UNL1        0.0624
     32 H           5.4382   -3.2153    0.3738 H       1  UNL1        0.0618
     33 H           3.0414   -2.8533    0.2370 H       1  UNL1        0.0624
     34 H           1.1456    0.7282    1.8734 H       1  UNL1        0.0657
     35 H          -5.9889   -1.5190   -2.5848 H       1  UNL1        0.0629
     36 H          -7.7394   -0.2685   -1.2536 H       1  UNL1        0.0625
     37 H          -7.9125    1.5136    1.1111 H       1  UNL1        0.1035
     38 H          -3.9472    1.7540    2.2336 H       1  UNL1        0.1036
     39 H           1.1245   -0.9568   -1.9152 H       1  UNL1        0.0363
     40 H           0.9004   -2.3908   -0.8503 H       1  UNL1        0.0363
     41 H           2.8441    2.2208    0.2502 H       1  UNL1        0.0581
@<TRIPOS>BOND
     1     1     2    1
     2     2     3    2
     3     3     4   ar
     4     4     5   ar
     5     5     6   ar
     6     6     7   ar
     7     7     8    1
     8     8     9    2
     9     9    10    1
    10    10    11   ar
    11    11    12   ar
    12    12    13   ar
    13    13    14   ar
    14    14    15   ar
    15    15    16   ar
    16    16    17   ar
    17    17    18   ar
    18    18    19   ar
    19    19    20   ar
    20    20    21   ar
    21    21    22   ar
    22    22    23   ar
    23    13    24   ar
    24    24    25    1
    25     7    26   ar
    26    26    27    2
    27    27     1    1
    28    26     3   ar
    29    25     8    1
    30    24    10   ar
    31    23    12   ar
    32    23    15   ar
    33    22    18   ar
    34     1    28    1
    35     1    29    1
    36     2    30    1
    37     4    31    1
    38     5    32    1
    39     6    33    1
    40     9    34    1
    41    16    35    1
    42    17    36    1
    43    19    37    1
    44    21    38    1
    45    25    39    1
    46    25    40    1
    47    27    41    1
