@<TRIPOS>MOLECULE
*****
 43 49 0 0 0
SMALL
GASTEIGER

@<TRIPOS>ATOM
      1 C          -5.4829   -0.5486   -2.3344 C.3     1  UNL1       -0.0148
      2 C          -6.4412   -0.3898   -1.1882 C.2     1  UNL1       -0.0725
      3 C          -5.7460   -0.2366   -0.0541 C.ar    1  UNL1       -0.0212
      4 C          -6.2164   -0.0337    1.2913 C.ar    1  UNL1       -0.0543
      5 C          -5.2930    0.1141    2.2605 C.ar    1  UNL1       -0.0606
      6 C          -3.8533    0.0656    1.9810 C.ar    1  UNL1       -0.0537
      7 C          -3.3349   -0.1368    0.7420 C.ar    1  UNL1       -0.0141
      8 C          -1.8966   -0.1761    0.5648 C.2     1  UNL1       -0.0342
      9 C          -1.1909   -1.1523   -0.0577 C.2     1  UNL1       -0.0436
     10 C           0.1620   -0.7634   -0.0069 C.ar    1  UNL1        0.0172
     11 S           1.5734   -1.4450   -0.5574 S.2     1  UNL1       -0.0878
     12 C           2.5383   -0.1155    0.0574 C.ar    1  UNL1        0.0314
     13 C           1.7036    0.8374    0.6857 C.ar    1  UNL1        0.0120
     14 C           2.2875    1.9785    1.2424 C.ar    1  UNL1        0.0368
     15 N           3.6190    2.1893    1.1950 N.ar    1  UNL1       -0.2543
     16 C           4.4268    1.3062    0.6088 C.ar    1  UNL1        0.0727
     17 C           5.8051    1.6277    0.6164 C.ar    1  UNL1       -0.0351
     18 C           6.8430    0.8492    0.0594 C.ar    1  UNL1       -0.0515
     19 C           6.3515   -0.3130   -0.5207 C.ar    1  UNL1       -0.0101
     20 C           7.1877   -1.2195   -1.1233 C.ar    1  UNL1       -0.0166
     21 S           6.3076   -2.5490   -1.7477 S.2     1  UNL1       -0.1039
     22 C           4.8081   -1.8991   -1.2047 C.ar    1  UNL1       -0.0159
     23 C           4.9542   -0.6930   -0.5581 C.ar    1  UNL1       -0.0006
     24 C           3.9315    0.1060    0.0081 C.ar    1  UNL1        0.0229
     25 C           0.3478    0.4301    0.6289 C.ar    1  UNL1       -0.0197
     26 C          -0.9754    0.9485    1.0800 C.3     1  UNL1       -0.0001
     27 C          -4.3134   -0.2870   -0.3374 C.ar    1  UNL1       -0.0144
     28 C          -4.1427   -0.4584   -1.6581 C.2     1  UNL1       -0.0720
     29 H          -5.6117   -1.5181   -2.8246 H       1  UNL1        0.0350
     30 H          -5.6084    0.2550   -3.0660 H       1  UNL1        0.0350
     31 H          -7.5157   -0.3916   -1.2833 H       1  UNL1        0.0581
     32 H          -7.2791   -0.0002    1.4977 H       1  UNL1        0.0624
     33 H          -5.5957    0.2696    3.2916 H       1  UNL1        0.0618
     34 H          -3.2098    0.1786    2.8495 H       1  UNL1        0.0624
     35 H          -1.5747   -2.0555   -0.5087 H       1  UNL1        0.0632
     36 H           1.7055    2.7488    1.7378 H       1  UNL1        0.0836
     37 H           6.0893    2.5656    1.0983 H       1  UNL1        0.0639
     38 H           7.8819    1.1487    0.0966 H       1  UNL1        0.0624
     39 H           8.2628   -1.1824   -1.2353 H       1  UNL1        0.0699
     40 H           3.9244   -2.4784   -1.4148 H       1  UNL1        0.0700
     41 H          -1.2157    1.9046    0.6051 H       1  UNL1        0.0362
     42 H          -1.0132    1.0386    2.1695 H       1  UNL1        0.0362
     43 H          -3.2003   -0.5189   -2.1796 H       1  UNL1        0.0581
@<TRIPOS>BOND
     1     1     2    1
     2     2     3    2
     3     3     4   ar
     4     4     5   ar
     5     5     6   ar
     6     6     7   ar
     7     7     8    1
     8     8     9    2
     9     9    10    1
    10    10    11   ar
    11    11    12   ar
    12    12    13   ar
    13    13    14   ar
    14    14    15   ar
    15    15    16   ar
    16    16    17   ar
    17    17    18   ar
    18    18    19   ar
    19    19    20   ar
    20    20    21   ar
    21    21    22   ar
    22    22    23   ar
    23    23    24   ar
    24    13    25   ar
    25    25    26    1
    26     7    27   ar
    27    27    28    2
    28    28     1    1
    29    27     3   ar
    30    26     8    1
    31    25    10   ar
    32    24    12   ar
    33    24    16   ar
    34    23    19   ar
    35     1    29    1
    36     1    30    1
    37     2    31    1
    38     4    32    1
    39     5    33    1
    40     6    34    1
    41     9    35    1
    42    14    36    1
    43    17    37    1
    44    18    38    1
    45    20    39    1
    46    22    40    1
    47    26    41    1
    48    26    42    1
    49    28    43    1
