@<TRIPOS>MOLECULE
*****
 47 53 0 0 0
SMALL
GASTEIGER

@<TRIPOS>ATOM
      1 C          -5.7779   -0.7973    2.3104 C.3     1  UNL1       -0.0148
      2 C          -6.7259   -0.7329    1.1445 C.2     1  UNL1       -0.0725
      3 C          -6.0208   -0.6035    0.0133 C.ar    1  UNL1       -0.0212
      4 C          -6.4724   -0.5091   -1.3520 C.ar    1  UNL1       -0.0543
      5 C          -5.5385   -0.3891   -2.3166 C.ar    1  UNL1       -0.0606
      6 C          -4.1027   -0.3501   -2.0125 C.ar    1  UNL1       -0.0520
      7 C          -3.6139   -0.4320   -0.7485 C.ar    1  UNL1        0.0078
      8 C          -2.1558   -0.3721   -0.5373 C.ar    1  UNL1        0.0735
      9 C          -1.4545    0.7950   -0.8142 C.ar    1  UNL1       -0.0117
     10 C          -0.0823    0.7492   -0.5666 C.ar    1  UNL1        0.0510
     11 N           0.8676    1.7190   -0.7309 N.ar    1  UNL1       -0.3535
     12 C           2.1167    1.2667   -0.3691 C.ar    1  UNL1        0.0574
     13 C           1.9742   -0.0597    0.0525 C.ar    1  UNL1        0.0172
     14 C           0.5634   -0.3826   -0.0730 C.ar    1  UNL1        0.0261
     15 C          -0.2361   -1.5079    0.1793 C.ar    1  UNL1        0.0380
     16 N          -1.5740   -1.4894   -0.0499 N.ar    1  UNL1       -0.2542
     17 C           3.1567   -0.7548    0.4835 C.ar    1  UNL1       -0.0075
     18 C           3.0819   -2.0992    0.9191 C.ar    1  UNL1       -0.0534
     19 C           4.2113   -2.7973    1.3428 C.ar    1  UNL1       -0.0611
     20 C           5.4437   -2.1699    1.3417 C.ar    1  UNL1       -0.0611
     21 C           5.5454   -0.8443    0.9159 C.ar    1  UNL1       -0.0534
     22 C           4.4240   -0.0954    0.4762 C.ar    1  UNL1       -0.0094
     23 C           4.5232    1.2625    0.0379 C.ar    1  UNL1       -0.0053
     24 C           5.7232    2.0112   -0.0109 C.ar    1  UNL1       -0.0352
     25 C           5.7169    3.3282   -0.4539 C.ar    1  UNL1        0.0282
     26 N           4.6125    3.9783   -0.8582 N.ar    1  UNL1       -0.2626
     27 C           3.4632    3.2735   -0.8154 C.ar    1  UNL1        0.0373
     28 C           3.3623    1.9395   -0.3850 C.ar    1  UNL1        0.0247
     29 C          -4.5938   -0.5700    0.3219 C.ar    1  UNL1       -0.0126
     30 C          -4.4333   -0.6780    1.6496 C.2     1  UNL1       -0.0719
     31 H          -5.9503    0.0315    3.0034 H       1  UNL1        0.0350
     32 H          -5.8722   -1.7489    2.8417 H       1  UNL1        0.0350
     33 H          -7.8000   -0.7896    1.2247 H       1  UNL1        0.0581
     34 H          -7.5313   -0.5424   -1.5769 H       1  UNL1        0.0624
     35 H          -5.8285   -0.3225   -3.3606 H       1  UNL1        0.0618
     36 H          -3.4373   -0.2640   -2.8675 H       1  UNL1        0.0624
     37 H          -1.9466    1.6842   -1.1886 H       1  UNL1        0.0660
     38 H           0.6687    2.6470   -1.0746 H       1  UNL1        0.1659
     39 H           0.1358   -2.4468    0.5653 H       1  UNL1        0.0836
     40 H           2.1445   -2.6375    0.9386 H       1  UNL1        0.0624
     41 H           4.1226   -3.8294    1.6718 H       1  UNL1        0.0618
     42 H           6.3303   -2.7058    1.6703 H       1  UNL1        0.0618
     43 H           6.5390   -0.4057    0.9368 H       1  UNL1        0.0624
     44 H           6.6753    1.5909    0.2906 H       1  UNL1        0.0639
     45 H           6.6361    3.9063   -0.4928 H       1  UNL1        0.0830
     46 H           2.5987    3.8375   -1.1501 H       1  UNL1        0.0836
     47 H          -3.4894   -0.6933    2.1731 H       1  UNL1        0.0581
@<TRIPOS>BOND
     1     1     2    1
     2     2     3    2
     3     3     4   ar
     4     4     5   ar
     5     5     6   ar
     6     6     7   ar
     7     7     8    1
     8     8     9   ar
     9     9    10   ar
    10    10    11   ar
    11    11    12   ar
    12    12    13   ar
    13    13    14   ar
    14    14    15   ar
    15    15    16   ar
    16    13    17   ar
    17    17    18   ar
    18    18    19   ar
    19    19    20   ar
    20    20    21   ar
    21    21    22   ar
    22    22    23   ar
    23    23    24   ar
    24    24    25   ar
    25    25    26   ar
    26    26    27   ar
    27    27    28   ar
    28     7    29   ar
    29    29    30    2
    30    30     1    1
    31    29     3   ar
    32    16     8   ar
    33    22    17   ar
    34    28    23   ar
    35    14    10   ar
    36    28    12   ar
    37     1    31    1
    38     1    32    1
    39     2    33    1
    40     4    34    1
    41     5    35    1
    42     6    36    1
    43     9    37    1
    44    11    38    1
    45    15    39    1
    46    18    40    1
    47    19    41    1
    48    20    42    1
    49    21    43    1
    50    24    44    1
    51    25    45    1
    52    27    46    1
    53    30    47    1
