@<TRIPOS>MOLECULE
*****
 39 44 0 0 0
SMALL
GASTEIGER

@<TRIPOS>ATOM
      1 C          -4.9430   -0.7475   -2.2024 C.3     1  UNL1       -0.0148
      2 C          -5.8306   -0.4961   -1.0151 C.2     1  UNL1       -0.0725
      3 C          -5.0756   -0.1145    0.0232 C.ar    1  UNL1       -0.0212
      4 C          -5.4608    0.2263    1.3689 C.ar    1  UNL1       -0.0543
      5 C          -4.4857    0.5744    2.2316 C.ar    1  UNL1       -0.0606
      6 C          -3.0722    0.6187    1.8364 C.ar    1  UNL1       -0.0520
      7 C          -2.6405    0.3039    0.5881 C.ar    1  UNL1        0.0058
      8 C          -1.2480    0.4062    0.3059 C.ar    1  UNL1        0.0495
      9 C          -0.5378    1.1391   -0.6348 C.ar    1  UNL1       -0.0123
     10 C           0.8191    0.7934   -0.4240 C.ar    1  UNL1        0.0674
     11 N           2.0881    1.0494   -0.8829 N.ar    1  UNL1       -0.3514
     12 C           2.9672    0.2908   -0.1459 C.ar    1  UNL1        0.0716
     13 C           4.3456    0.1486   -0.1705 C.ar    1  UNL1       -0.0096
     14 C           5.4269    0.7636   -1.0080 C.3     1  UNL1       -0.0066
     15 C           6.6485    0.0960   -0.4204 C.2     1  UNL1       -0.0790
     16 C           6.3503   -0.7541    0.5767 C.2     1  UNL1       -0.0564
     17 C           4.9078   -0.7397    0.7542 C.ar    1  UNL1       -0.0017
     18 C           4.1009   -1.4304    1.6401 C.ar    1  UNL1        0.0358
     19 N           2.7494   -1.3169    1.6940 N.ar    1  UNL1       -0.2508
     20 C           2.2406   -0.4512    0.7870 C.ar    1  UNL1        0.1126
     21 C           0.8906   -0.1125    0.5871 C.ar    1  UNL1        0.0910
     22 N          -0.3725   -0.3675    1.0384 N.ar    1  UNL1       -0.3512
     23 C          -3.6706   -0.0771   -0.3740 C.ar    1  UNL1       -0.0127
     24 C          -3.5735   -0.4459   -1.6609 C.2     1  UNL1       -0.0719
     25 H          -5.1946   -0.0784   -3.0305 H       1  UNL1        0.0350
     26 H          -5.0145   -1.7878   -2.5331 H       1  UNL1        0.0350
     27 H          -6.9027   -0.6142   -1.0156 H       1  UNL1        0.0581
     28 H          -6.5035    0.1967    1.6601 H       1  UNL1        0.0624
     29 H          -4.7239    0.8415    3.2565 H       1  UNL1        0.0618
     30 H          -2.3783    0.9439    2.6075 H       1  UNL1        0.0624
     31 H          -0.9525    1.8261   -1.3596 H       1  UNL1        0.0659
     32 H           2.2975    1.6922   -1.6349 H       1  UNL1        0.1660
     33 H           5.3062    0.5071   -2.0641 H       1  UNL1        0.0356
     34 H           5.4661    1.8479   -0.8731 H       1  UNL1        0.0356
     35 H           7.6505    0.2921   -0.7758 H       1  UNL1        0.0575
     36 H           7.0360   -1.3507    1.1563 H       1  UNL1        0.0621
     37 H           4.5278   -2.1214    2.3605 H       1  UNL1        0.0836
     38 H          -0.5784   -1.0269    1.7791 H       1  UNL1        0.1660
     39 H          -2.6603   -0.5251   -2.2300 H       1  UNL1        0.0581
@<TRIPOS>BOND
     1     1     2    1
     2     2     3    2
     3     3     4   ar
     4     4     5   ar
     5     5     6   ar
     6     6     7   ar
     7     7     8    1
     8     8     9   ar
     9     9    10   ar
    10    10    11   ar
    11    11    12   ar
    12    12    13   ar
    13    13    14    1
    14    14    15    1
    15    15    16    2
    16    16    17    1
    17    17    18   ar
    18    18    19   ar
    19    19    20   ar
    20    20    21   ar
    21    21    22   ar
    22     7    23   ar
    23    23    24    2
    24    24     1    1
    25    23     3   ar
    26    22     8   ar
    27    21    10   ar
    28    20    12   ar
    29    17    13   ar
    30     1    25    1
    31     1    26    1
    32     2    27    1
    33     4    28    1
    34     5    29    1
    35     6    30    1
    36     9    31    1
    37    11    32    1
    38    14    33    1
    39    14    34    1
    40    15    35    1
    41    16    36    1
    42    18    37    1
    43    22    38    1
    44    24    39    1
