@<TRIPOS>MOLECULE
*****
 42 48 0 0 0
SMALL
GASTEIGER

@<TRIPOS>ATOM
      1 C          -4.9328    0.1471   -2.1761 C.3     1  UNL1       -0.0148
      2 C          -5.7552   -0.5255   -1.1114 C.2     1  UNL1       -0.0725
      3 C          -4.9670   -0.8212   -0.0700 C.ar    1  UNL1       -0.0212
      4 C          -5.2856   -1.4671    1.1784 C.ar    1  UNL1       -0.0543
      5 C          -4.2869   -1.6496    2.0655 C.ar    1  UNL1       -0.0606
      6 C          -2.9119   -1.2125    1.7945 C.ar    1  UNL1       -0.0534
      7 C          -2.5527   -0.5916    0.6438 C.ar    1  UNL1       -0.0097
      8 C          -1.1554   -0.1983    0.4692 C.ar    1  UNL1       -0.0046
      9 C          -0.1087   -1.1167    0.1707 C.ar    1  UNL1       -0.0293
     10 C           1.2215   -0.6529    0.0027 C.ar    1  UNL1        0.0493
     11 N           2.4062   -1.2966   -0.2864 N.ar    1  UNL1       -0.3534
     12 C           3.4269   -0.3607   -0.3404 C.ar    1  UNL1        0.0588
     13 C           4.8074   -0.3068   -0.5716 C.ar    1  UNL1       -0.0055
     14 C           5.8964   -1.2481   -0.8820 C.3     1  UNL1       -0.0061
     15 C           7.0679   -0.2529   -0.9550 C.2     1  UNL1       -0.0785
     16 C           6.6735    1.0225   -0.7213 C.2     1  UNL1       -0.0513
     17 C           5.2821    0.9744   -0.4873 C.ar    1  UNL1        0.0180
     18 S           4.1356    2.1513   -0.1369 S.2     1  UNL1       -0.0864
     19 C           2.9147    0.9017   -0.0881 C.ar    1  UNL1        0.0461
     20 C           1.5551    0.6790    0.1172 C.ar    1  UNL1        0.0247
     21 C           0.5707    1.6402    0.4089 C.ar    1  UNL1        0.0307
     22 C           0.5901    2.9862    0.5790 C.ar    1  UNL1        0.1001
     23 O          -0.6983    3.3804    0.8521 O.2     1  UNL1       -0.4698
     24 C          -1.4894    2.2546    0.8440 C.ar    1  UNL1        0.1000
     25 C          -0.7338    1.1378    0.5667 C.ar    1  UNL1        0.0283
     26 C          -3.6018   -0.3828   -0.3448 C.ar    1  UNL1       -0.0141
     27 C          -3.5602    0.1789   -1.5625 C.2     1  UNL1       -0.0720
     28 H          -5.2982    1.1589   -2.3747 H       1  UNL1        0.0350
     29 H          -4.9360   -0.4356   -3.1019 H       1  UNL1        0.0350
     30 H          -6.8111   -0.7309   -1.1916 H       1  UNL1        0.0581
     31 H          -6.3000   -1.7886    1.3800 H       1  UNL1        0.0624
     32 H          -4.4769   -2.1300    3.0204 H       1  UNL1        0.0618
     33 H          -2.1854   -1.4054    2.5801 H       1  UNL1        0.0624
     34 H          -0.3355   -2.1751    0.0647 H       1  UNL1        0.0644
     35 H           2.5451   -2.2866   -0.4405 H       1  UNL1        0.1659
     36 H           5.7538   -1.7499   -1.8427 H       1  UNL1        0.0357
     37 H           6.0574   -1.9783   -0.0844 H       1  UNL1        0.0357
     38 H           8.0829   -0.5545   -1.1694 H       1  UNL1        0.0576
     39 H           7.2886    1.9098   -0.7123 H       1  UNL1        0.0626
     40 H           1.3319    3.7707    0.5532 H       1  UNL1        0.1036
     41 H          -2.5367    2.4289    1.0488 H       1  UNL1        0.1036
     42 H          -2.6878    0.5958   -2.0422 H       1  UNL1        0.0581
@<TRIPOS>BOND
     1     1     2    1
     2     2     3    2
     3     3     4   ar
     4     4     5   ar
     5     5     6   ar
     6     6     7   ar
     7     7     8    1
     8     8     9   ar
     9     9    10   ar
    10    10    11   ar
    11    11    12   ar
    12    12    13   ar
    13    13    14    1
    14    14    15    1
    15    15    16    2
    16    16    17    1
    17    17    18   ar
    18    18    19   ar
    19    19    20   ar
    20    20    21   ar
    21    21    22   ar
    22    22    23   ar
    23    23    24   ar
    24    24    25   ar
    25     7    26   ar
    26    26    27    2
    27    27     1    1
    28    26     3   ar
    29    25     8   ar
    30    20    10   ar
    31    25    21   ar
    32    19    12   ar
    33    17    13   ar
    34     1    28    1
    35     1    29    1
    36     2    30    1
    37     4    31    1
    38     5    32    1
    39     6    33    1
    40     9    34    1
    41    11    35    1
    42    14    36    1
    43    14    37    1
    44    15    38    1
    45    16    39    1
    46    22    40    1
    47    24    41    1
    48    27    42    1
