@<TRIPOS>MOLECULE
*****
 46 52 0 0 0
SMALL
GASTEIGER

@<TRIPOS>ATOM
      1 C          -5.4773    2.3424    1.0528 C.3     1  UNL1        0.0000
      2 C          -6.5695    1.4882    0.4738 C.2     1  UNL1        0.0000
      3 C          -6.0424    0.3344    0.0447 C.ar    1  UNL1        0.0000
      4 C          -6.6889   -0.8053   -0.5535 C.ar    1  UNL1        0.0000
      5 C          -5.9213   -1.8657   -0.8722 C.ar    1  UNL1        0.0000
      6 C          -4.4719   -1.8776   -0.6413 C.ar    1  UNL1        0.0000
      7 C          -3.7954   -0.8348   -0.0954 C.ar    1  UNL1        0.0000
      8 C          -2.3831   -0.9659    0.0413 C.ar    1  UNL1        0.0000
      9 C          -1.5540   -1.9718    0.5376 C.ar    1  UNL1        0.0000
     10 C          -0.2568   -1.5019    0.3839 C.ar    1  UNL1        0.0000
     11 SI          1.5290   -1.9509    0.6787 Si      1  UNL1        0.0000
     12 C           2.1118   -0.2806   -0.0689 C.ar    1  UNL1        0.0000
     13 C           0.9566    0.4435   -0.4602 C.ar    1  UNL1        0.0000
     14 N           0.9246    1.6579   -1.0236 N.ar    1  UNL1        0.0000
     15 C           2.1450    2.2050   -1.2196 C.ar    1  UNL1        0.0000
     16 C           3.3656    1.5998   -0.8810 C.ar    1  UNL1        0.0000
     17 C           4.6277    2.3315   -1.1605 C.ar    1  UNL1        0.0000
     18 C           5.8278    1.8075   -0.8600 C.ar    1  UNL1        0.0000
     19 C           5.8880    0.5065   -0.2532 C.ar    1  UNL1        0.0000
     20 C           6.9802   -0.1756    0.1157 C.2     1  UNL1        0.0000
     21 C           6.5661   -1.4874    0.7049 C.3     1  UNL1        0.0000
     22 C           5.0664   -1.4281    0.6056 C.2     1  UNL1        0.0000
     23 C           4.6818   -0.2666    0.0480 C.ar    1  UNL1        0.0000
     24 C           3.3558    0.3035   -0.2801 C.ar    1  UNL1        0.0000
     25 C          -0.2807   -0.2562   -0.1945 C.ar    1  UNL1        0.0000
     26 N          -1.5819    0.0718   -0.4149 N.ar    1  UNL1        0.0000
     27 C          -4.6002    0.3274    0.2823 C.ar    1  UNL1        0.0000
     28 C          -4.2568    1.4815    0.8769 C.2     1  UNL1        0.0000
     29 H          -5.3782    3.2825    0.5023 H       1  UNL1        0.0000
     30 H          -5.6611    2.5513    2.1108 H       1  UNL1        0.0000
     31 H          -7.6103    1.7688    0.4331 H       1  UNL1        0.0000
     32 H          -7.7581   -0.7965   -0.7257 H       1  UNL1        0.0000
     33 H          -6.3599   -2.7512   -1.3215 H       1  UNL1        0.0000
     34 H          -3.9531   -2.7780   -0.9604 H       1  UNL1        0.0000
     35 H          -1.8876   -2.9109    0.9601 H       1  UNL1        0.0000
     36 H           1.8974   -2.0561    2.1148 H       1  UNL1        0.0000
     37 H           2.0045   -3.1006   -0.1348 H       1  UNL1        0.0000
     38 H           2.1196    3.1906   -1.6782 H       1  UNL1        0.0000
     39 H           4.5602    3.3127   -1.6194 H       1  UNL1        0.0000
     40 H           6.7468    2.3450   -1.0658 H       1  UNL1        0.0000
     41 H           8.0030    0.1523    0.0124 H       1  UNL1        0.0000
     42 H           6.9653   -2.3250    0.1255 H       1  UNL1        0.0000
     43 H           6.8878   -1.5722    1.7470 H       1  UNL1        0.0000
     44 H           4.4485   -2.2372    0.9518 H       1  UNL1        0.0000
     45 H          -1.9029    0.9283   -0.8479 H       1  UNL1        0.0000
     46 H          -3.2683    1.7636    1.2048 H       1  UNL1        0.0000
@<TRIPOS>BOND
     1     1     2    1
     2     2     3    2
     3     3     4   ar
     4     4     5   ar
     5     5     6   ar
     6     6     7   ar
     7     7     8    1
     8     8     9   ar
     9     9    10   ar
    10    10    11    1
    11    11    12    1
    12    12    13   ar
    13    13    14   ar
    14    14    15   ar
    15    15    16   ar
    16    16    17   ar
    17    17    18   ar
    18    18    19   ar
    19    19    20    2
    20    20    21    1
    21    21    22    1
    22    22    23    2
    23    23    24   ar
    24    13    25    1
    25    25    26   ar
    26     7    27   ar
    27    27    28    2
    28    28     1    1
    29    27     3   ar
    30    26     8   ar
    31    25    10   ar
    32    24    12   ar
    33    24    16   ar
    34    23    19   ar
    35     1    29    1
    36     1    30    1
    37     2    31    1
    38     4    32    1
    39     5    33    1
    40     6    34    1
    41     9    35    1
    42    11    36    1
    43    11    37    1
    44    15    38    1
    45    17    39    1
    46    18    40    1
    47    20    41    1
    48    21    42    1
    49    21    43    1
    50    22    44    1
    51    26    45    1
    52    28    46    1
