@<TRIPOS>MOLECULE
*****
 46 52 0 0 0
SMALL
GASTEIGER

@<TRIPOS>ATOM
      1 C           5.9347   -0.6993    1.6555 C.3     1  UNL1        0.0000
      2 C           6.5959   -0.3201    0.3622 C.2     1  UNL1        0.0000
      3 C           5.6563    0.0432   -0.5200 C.ar    1  UNL1        0.0000
      4 C           5.8014    0.4534   -1.8928 C.ar    1  UNL1        0.0000
      5 C           4.6807    0.7380   -2.5831 C.ar    1  UNL1        0.0000
      6 C           3.3490    0.6562   -1.9735 C.ar    1  UNL1        0.0000
      7 C           3.1369    0.2934   -0.6815 C.ar    1  UNL1        0.0000
      8 C           1.7801    0.2972   -0.2160 C.ar    1  UNL1        0.0000
      9 C           1.2710    0.6059    1.0501 C.ar    1  UNL1        0.0000
     10 C          -0.1265    0.4667    0.9910 C.ar    1  UNL1        0.0000
     11 C          -0.4249    0.0851   -0.2872 C.ar    1  UNL1        0.0000
     12 O           0.6983   -0.0115   -1.0345 O.2     1  UNL1        0.0000
     13 C          -1.7387   -0.1478   -0.8643 C.ar    1  UNL1        0.0000
     14 C          -1.8820   -0.5417   -2.1944 C.ar    1  UNL1        0.0000
     15 C          -3.1511   -0.6701   -2.7448 C.ar    1  UNL1        0.0000
     16 C          -4.2909   -0.3419   -2.0010 C.ar    1  UNL1        0.0000
     17 C          -5.5475   -0.4110   -2.6152 C.ar    1  UNL1        0.0000
     18 C          -6.6662   -0.0211   -1.9051 C.ar    1  UNL1        0.0000
     19 N          -6.6149    0.4480   -0.6492 N.ar    1  UNL1        0.0000
     20 C          -5.3866    0.4990   -0.0715 C.ar    1  UNL1        0.0000
     21 C          -4.1732    0.0811   -0.6514 C.ar    1  UNL1        0.0000
     22 C          -2.8793    0.0931   -0.0342 C.ar    1  UNL1        0.0000
     23 C          -2.5891    0.3503    1.4368 C.ar    1  UNL1        0.0000
     24 C          -3.4655    0.2545    2.4620 C.2     1  UNL1        0.0000
     25 SI         -2.6821    0.6625    4.1182 Si      1  UNL1        0.0000
     26 C          -1.0513    0.8170    3.2460 C.2     1  UNL1        0.0000
     27 C          -1.1862    0.5999    1.9242 C.ar    1  UNL1        0.0000
     28 C           4.3310   -0.0463    0.0939 C.ar    1  UNL1        0.0000
     29 C           4.4762   -0.4896    1.3535 C.2     1  UNL1        0.0000
     30 H           6.2644   -0.0510    2.4726 H       1  UNL1        0.0000
     31 H           6.1365   -1.7443    1.9086 H       1  UNL1        0.0000
     32 H           7.6591   -0.3576    0.1833 H       1  UNL1        0.0000
     33 H           6.7851    0.5152   -2.3420 H       1  UNL1        0.0000
     34 H           4.7339    1.0465   -3.6227 H       1  UNL1        0.0000
     35 H           2.5195    0.9285   -2.6225 H       1  UNL1        0.0000
     36 H           1.8612    0.9066    1.9034 H       1  UNL1        0.0000
     37 H          -1.0071   -0.7444   -2.8079 H       1  UNL1        0.0000
     38 H          -3.2370   -0.9873   -3.7825 H       1  UNL1        0.0000
     39 H          -5.6608   -0.7496   -3.6402 H       1  UNL1        0.0000
     40 H          -7.6562   -0.0607   -2.3496 H       1  UNL1        0.0000
     41 H          -5.4196    0.9607    0.9077 H       1  UNL1        0.0000
     42 H          -4.5011   -0.0352    2.4541 H       1  UNL1        0.0000
     43 H          -2.7224   -0.4859    5.0541 H       1  UNL1        0.0000
     44 H          -3.1661    1.9539    4.6608 H       1  UNL1        0.0000
     45 H          -0.1326    0.9709    3.7891 H       1  UNL1        0.0000
     46 H           3.6875   -0.6913    2.0603 H       1  UNL1        0.0000
@<TRIPOS>BOND
     1     1     2    1
     2     2     3    2
     3     3     4   ar
     4     4     5   ar
     5     5     6   ar
     6     6     7   ar
     7     7     8    1
     8     8     9   ar
     9     9    10   ar
    10    10    11   ar
    11    11    12   ar
    12    11    13   ar
    13    13    14   ar
    14    14    15   ar
    15    15    16   ar
    16    16    17   ar
    17    17    18   ar
    18    18    19   ar
    19    19    20   ar
    20    20    21   ar
    21    21    22   ar
    22    22    23   ar
    23    23    24    2
    24    24    25    1
    25    25    26    1
    26    26    27    2
    27     7    28   ar
    28    28    29    2
    29    29     1    1
    30    28     3   ar
    31    12     8   ar
    32    22    13   ar
    33    27    23   ar
    34    27    10   ar
    35    21    16   ar
    36     1    30    1
    37     1    31    1
    38     2    32    1
    39     4    33    1
    40     5    34    1
    41     6    35    1
    42     9    36    1
    43    14    37    1
    44    15    38    1
    45    17    39    1
    46    18    40    1
    47    20    41    1
    48    24    42    1
    49    25    43    1
    50    25    44    1
    51    26    45    1
    52    29    46    1
