@<TRIPOS>MOLECULE
*****
 45 51 0 0 0
SMALL
GASTEIGER

@<TRIPOS>ATOM
      1 C           6.0437    0.2711   -1.3751 C.3     1  UNL1       -0.0148
      2 C           6.5660   -0.7355   -0.3918 C.2     1  UNL1       -0.0725
      3 C           5.5471   -1.1986    0.3434 C.ar    1  UNL1       -0.0211
      4 C           5.5502   -2.1969    1.3813 C.ar    1  UNL1       -0.0543
      5 C           4.3707   -2.5135    1.9486 C.ar    1  UNL1       -0.0605
      6 C           3.1169   -1.8641    1.5517 C.ar    1  UNL1       -0.0505
      7 C           3.0394   -0.9027    0.5946 C.ar    1  UNL1        0.0247
      8 C           1.7456   -0.3324    0.3468 C.ar    1  UNL1        0.1369
      9 C           1.4014    0.9637   -0.0565 C.ar    1  UNL1       -0.0074
     10 C           0.0022    1.0189   -0.1498 C.ar    1  UNL1        0.0303
     11 C          -0.4642   -0.2211    0.2042 C.ar    1  UNL1        0.1621
     12 O           0.5618   -1.0465    0.5126 O.2     1  UNL1       -0.4526
     13 C          -1.8552   -0.6535    0.2683 C.ar    1  UNL1        0.1163
     14 N          -2.0867   -1.9276    0.6472 N.ar    1  UNL1       -0.2505
     15 C          -3.3786   -2.2945    0.6942 C.ar    1  UNL1        0.0376
     16 C          -4.4496   -1.4557    0.3843 C.ar    1  UNL1        0.0191
     17 C          -5.7755   -1.9112    0.4567 C.ar    1  UNL1       -0.0497
     18 C          -6.8182   -1.0533    0.1428 C.ar    1  UNL1       -0.0430
     19 C          -6.4960    0.2324   -0.2329 C.ar    1  UNL1        0.0283
     20 N          -5.2291    0.6976   -0.3112 N.ar    1  UNL1       -0.2542
     21 C          -4.1927   -0.1238   -0.0090 C.ar    1  UNL1        0.0822
     22 C          -2.8562    0.2929   -0.0695 C.ar    1  UNL1        0.0373
     23 C          -2.3811    1.6600   -0.4607 C.ar    1  UNL1       -0.0098
     24 C          -3.0707    2.7556   -0.8257 C.2     1  UNL1       -0.0718
     25 C          -2.1342    3.8924   -1.1226 C.3     1  UNL1       -0.0148
     26 C          -0.7877    3.2819   -0.8716 C.2     1  UNL1       -0.0718
     27 C          -0.9464    2.0075   -0.4948 C.ar    1  UNL1       -0.0103
     28 C           4.2993   -0.5505   -0.0633 C.ar    1  UNL1       -0.0111
     29 C           4.5709    0.2952   -1.0709 C.2     1  UNL1       -0.0719
     30 H           6.4953    1.2540   -1.2119 H       1  UNL1        0.0350
     31 H           6.2264   -0.0531   -2.4039 H       1  UNL1        0.0350
     32 H           7.5979   -1.0405   -0.3160 H       1  UNL1        0.0581
     33 H           6.4762   -2.6758    1.6747 H       1  UNL1        0.0624
     34 H           4.3149   -3.2649    2.7302 H       1  UNL1        0.0618
     35 H           2.2299   -2.1895    2.0918 H       1  UNL1        0.0625
     36 H           2.0997    1.7671   -0.2402 H       1  UNL1        0.0662
     37 H          -3.5390   -3.3255    1.0006 H       1  UNL1        0.0836
     38 H          -5.9982   -2.9325    0.7568 H       1  UNL1        0.0625
     39 H          -7.8511   -1.3786    0.1901 H       1  UNL1        0.0633
     40 H          -7.2680    0.9520   -0.4909 H       1  UNL1        0.0830
     41 H          -4.1441    2.8404   -0.9038 H       1  UNL1        0.0581
     42 H          -2.2309    4.2201   -2.1618 H       1  UNL1        0.0350
     43 H          -2.3155    4.7366   -0.4510 H       1  UNL1        0.0350
     44 H           0.1507    3.8025   -0.9819 H       1  UNL1        0.0581
     45 H           3.8626    0.9000   -1.6136 H       1  UNL1        0.0581
@<TRIPOS>BOND
     1     1     2    1
     2     2     3    2
     3     3     4   ar
     4     4     5   ar
     5     5     6   ar
     6     6     7   ar
     7     7     8    1
     8     8     9   ar
     9     9    10   ar
    10    10    11   ar
    11    11    12   ar
    12    11    13   ar
    13    13    14   ar
    14    14    15   ar
    15    15    16   ar
    16    16    17   ar
    17    17    18   ar
    18    18    19   ar
    19    19    20   ar
    20    20    21   ar
    21    21    22   ar
    22    22    23   ar
    23    23    24    2
    24    24    25    1
    25    25    26    1
    26    26    27    2
    27     7    28   ar
    28    28    29    2
    29    29     1    1
    30    28     3   ar
    31    12     8   ar
    32    22    13   ar
    33    27    23   ar
    34    27    10   ar
    35    21    16   ar
    36     1    30    1
    37     1    31    1
    38     2    32    1
    39     4    33    1
    40     5    34    1
    41     6    35    1
    42     9    36    1
    43    15    37    1
    44    17    38    1
    45    18    39    1
    46    19    40    1
    47    24    41    1
    48    25    42    1
    49    25    43    1
    50    26    44    1
    51    29    45    1
