@<TRIPOS>MOLECULE
*****
 46 53 0 0 0
SMALL
GASTEIGER

@<TRIPOS>ATOM
      1 C          -6.3730   -1.5725   -1.0513 C.3     1  UNL1       -0.0148
      2 C          -7.0625   -0.2682   -0.7752 C.2     1  UNL1       -0.0725
      3 C          -6.1528    0.6345   -0.3870 C.ar    1  UNL1       -0.0211
      4 C          -6.3306    2.0232   -0.0500 C.ar    1  UNL1       -0.0543
      5 C          -5.2345    2.7328    0.2794 C.ar    1  UNL1       -0.0605
      6 C          -3.8984    2.1286    0.3176 C.ar    1  UNL1       -0.0505
      7 C          -3.6572    0.8230    0.0293 C.ar    1  UNL1        0.0247
      8 C          -2.3013    0.3668    0.1497 C.ar    1  UNL1        0.1369
      9 C          -1.8159   -0.8915    0.5361 C.ar    1  UNL1       -0.0073
     10 C          -0.4344   -0.7900    0.4871 C.ar    1  UNL1        0.0326
     11 C           0.6249   -1.6612    0.7973 C.ar    1  UNL1        0.0313
     12 C           0.5331   -2.9244    1.2996 C.ar    1  UNL1        0.1001
     13 O           1.8062   -3.3677    1.5626 O.2     1  UNL1       -0.4698
     14 C           2.6801   -2.3615    1.2120 C.ar    1  UNL1        0.1000
     15 C           1.9792   -1.3143    0.6822 C.ar    1  UNL1        0.0295
     16 C           2.4306   -0.0325    0.2034 C.ar    1  UNL1        0.0118
     17 C           1.4171    0.8786   -0.0166 C.ar    1  UNL1        0.0640
     18 S           1.9873    2.4286   -0.3755 S.2     1  UNL1       -0.0845
     19 C           3.6436    1.9016   -0.3033 C.ar    1  UNL1        0.0213
     20 C           4.8026    2.7186   -0.4897 C.ar    1  UNL1       -0.0468
     21 C           6.1021    2.1855   -0.4920 C.ar    1  UNL1       -0.0515
     22 C           6.0875    0.8100   -0.3554 C.ar    1  UNL1        0.0001
     23 C           7.2121    0.0239   -0.4400 C.ar    1  UNL1        0.0094
     24 N           6.8027   -1.2919   -0.3578 N.ar    1  UNL1       -0.3659
     25 C           5.4273   -1.3552   -0.2314 C.ar    1  UNL1        0.0100
     26 C           4.9986   -0.0616   -0.1654 C.ar    1  UNL1        0.0082
     27 C           3.6871    0.5223   -0.0625 C.ar    1  UNL1        0.0068
     28 C          -0.0744    0.4669    0.1072 C.ar    1  UNL1        0.1506
     29 O          -1.2013    1.1951   -0.0939 O.2     1  UNL1       -0.4536
     30 C          -4.8224    0.0255   -0.3578 C.ar    1  UNL1       -0.0111
     31 C          -4.9331   -1.2529   -0.7551 C.2     1  UNL1       -0.0719
     32 H          -6.5014   -1.8716   -2.0958 H       1  UNL1        0.0350
     33 H          -6.7441   -2.3628   -0.3924 H       1  UNL1        0.0350
     34 H          -8.1210   -0.0970   -0.8943 H       1  UNL1        0.0581
     35 H          -7.3174    2.4690   -0.0774 H       1  UNL1        0.0624
     36 H          -5.3119    3.7852    0.5349 H       1  UNL1        0.0618
     37 H          -3.0927    2.7964    0.6154 H       1  UNL1        0.0625
     38 H          -2.4206   -1.7368    0.8296 H       1  UNL1        0.0662
     39 H          -0.2653   -3.6048    1.5583 H       1  UNL1        0.1036
     40 H           3.7098   -2.5681    1.4542 H       1  UNL1        0.1036
     41 H           4.6734    3.7877   -0.6516 H       1  UNL1        0.0629
     42 H           6.9847    2.7909   -0.6468 H       1  UNL1        0.0624
     43 H           8.2571    0.2639   -0.5837 H       1  UNL1        0.0813
     44 H           7.4148   -2.0941   -0.4336 H       1  UNL1        0.1648
     45 H           4.9357   -2.3140   -0.2551 H       1  UNL1        0.0813
     46 H          -4.1316   -1.9640   -0.8728 H       1  UNL1        0.0581
@<TRIPOS>BOND
     1     1     2    1
     2     2     3    2
     3     3     4   ar
     4     4     5   ar
     5     5     6   ar
     6     6     7   ar
     7     7     8    1
     8     8     9   ar
     9     9    10   ar
    10    10    11   ar
    11    11    12   ar
    12    12    13   ar
    13    13    14   ar
    14    14    15   ar
    15    15    16   ar
    16    16    17   ar
    17    17    18   ar
    18    18    19   ar
    19    19    20   ar
    20    20    21   ar
    21    21    22   ar
    22    22    23   ar
    23    23    24   ar
    24    24    25   ar
    25    25    26   ar
    26    26    27   ar
    27    17    28   ar
    28    28    29   ar
    29     7    30   ar
    30    30    31    2
    31    31     1    1
    32    30     3   ar
    33    29     8   ar
    34    28    10   ar
    35    15    11   ar
    36    27    16   ar
    37    27    19   ar
    38    26    22   ar
    39     1    32    1
    40     1    33    1
    41     2    34    1
    42     4    35    1
    43     5    36    1
    44     6    37    1
    45     9    38    1
    46    12    39    1
    47    14    40    1
    48    20    41    1
    49    21    42    1
    50    23    43    1
    51    24    44    1
    52    25    45    1
    53    31    46    1
