@<TRIPOS>MOLECULE
*****
 40 46 0 0 0
SMALL
GASTEIGER

@<TRIPOS>ATOM
      1 SI          0.7086   -3.4321   -1.2517 Si      1  UNL1        0.0000
      2 C           1.9605   -2.1836   -0.6464 C.2     1  UNL1        0.0000
      3 C           1.3640   -1.0595   -0.1982 C.ar    1  UNL1        0.0000
      4 C           2.0634    0.1153    0.3322 C.ar    1  UNL1        0.0000
      5 C           1.3347    1.1681    0.7654 C.ar    1  UNL1        0.0000
      6 C          -0.1411    1.1938    0.7115 C.ar    1  UNL1        0.0000
      7 N          -0.7114    2.3288    1.1877 N.ar    1  UNL1        0.0000
      8 C          -2.0634    2.4468    1.1767 C.ar    1  UNL1        0.0000
      9 C          -2.8566    1.4107    0.6851 C.ar    1  UNL1        0.0000
     10 C          -4.2479    1.1980    0.5283 C.ar    1  UNL1        0.0000
     11 N          -5.3056    1.9959    0.8304 N.ar    1  UNL1        0.0000
     12 C          -6.5102    1.4515    0.5361 C.ar    1  UNL1        0.0000
     13 C          -6.7203    0.1938   -0.0251 C.ar    1  UNL1        0.0000
     14 C          -5.6267   -0.6161   -0.3299 C.ar    1  UNL1        0.0000
     15 C          -4.3888   -0.0641   -0.0312 C.ar    1  UNL1        0.0000
     16 O          -3.1729   -0.6373   -0.2262 O.2     1  UNL1        0.0000
     17 C          -2.2312    0.2581    0.2081 C.ar    1  UNL1        0.0000
     18 C          -0.8502    0.0973    0.2001 C.ar    1  UNL1        0.0000
     19 C          -0.1205   -1.0830   -0.2778 C.ar    1  UNL1        0.0000
     20 C          -0.6356   -2.2186   -0.7912 C.2     1  UNL1        0.0000
     21 C           3.5183    0.2201    0.4527 C.ar    1  UNL1        0.0000
     22 C           4.2358   -0.0065    1.6309 C.ar    1  UNL1        0.0000
     23 N           5.5970    0.0607    1.8041 N.ar    1  UNL1        0.0000
     24 C           6.4180    0.3762    0.7586 C.ar    1  UNL1        0.0000
     25 C           5.8311    0.6259   -0.4986 C.ar    1  UNL1        0.0000
     26 N           6.4749    0.9426   -1.6339 N.ar    1  UNL1        0.0000
     27 S           5.3050    1.1273   -2.7977 S.2     1  UNL1        0.0000
     28 N           3.9371    0.8084   -1.9169 N.ar    1  UNL1        0.0000
     29 C           4.3343    0.5448   -0.6584 C.ar    1  UNL1        0.0000
     30 H           0.6806   -4.6521   -0.4096 H       1  UNL1        0.0000
     31 H           0.7936   -3.6608   -2.7138 H       1  UNL1        0.0000
     32 H           3.0158   -2.3994   -0.6935 H       1  UNL1        0.0000
     33 H           1.7947    2.0654    1.1691 H       1  UNL1        0.0000
     34 H          -2.4767    3.3719    1.5640 H       1  UNL1        0.0000
     35 H          -7.3604    2.0875    0.7758 H       1  UNL1        0.0000
     36 H          -7.7306   -0.1512   -0.2230 H       1  UNL1        0.0000
     37 H          -5.7272   -1.6009   -0.7664 H       1  UNL1        0.0000
     38 H          -1.6722   -2.4685   -0.9475 H       1  UNL1        0.0000
     39 H           3.6992   -0.2724    2.5424 H       1  UNL1        0.0000
     40 H           7.4827    0.4172    0.9461 H       1  UNL1        0.0000
@<TRIPOS>BOND
     1     1     2    1
     2     2     3    2
     3     3     4   ar
     4     4     5   ar
     5     5     6   ar
     6     6     7   ar
     7     7     8   ar
     8     8     9   ar
     9     9    10   ar
    10    10    11   ar
    11    11    12   ar
    12    12    13   ar
    13    13    14   ar
    14    14    15   ar
    15    15    16   ar
    16    16    17   ar
    17    17    18   ar
    18    18    19   ar
    19    19    20    2
    20     4    21    1
    21    21    22   ar
    22    22    23   ar
    23    23    24   ar
    24    24    25   ar
    25    25    26   ar
    26    26    27   ar
    27    27    28   ar
    28    28    29   ar
    29    20     1    1
    30    29    21   ar
    31    19     3   ar
    32    29    25   ar
    33    18     6   ar
    34    17     9   ar
    35    15    10   ar
    36     1    30    1
    37     1    31    1
    38     2    32    1
    39     5    33    1
    40     8    34    1
    41    12    35    1
    42    13    36    1
    43    14    37    1
    44    20    38    1
    45    22    39    1
    46    24    40    1
