@<TRIPOS>MOLECULE
*****
 46 53 0 0 0
SMALL
GASTEIGER

@<TRIPOS>ATOM
      1 C          -5.1858   -0.3232   -2.1854 C.3     1  UNL1       -0.0148
      2 C          -6.1461    0.3299   -1.2311 C.2     1  UNL1       -0.0725
      3 C          -5.5030    0.6224   -0.0936 C.ar    1  UNL1       -0.0212
      4 C          -5.9950    1.2358    1.1138 C.ar    1  UNL1       -0.0543
      5 C          -5.1263    1.4093    2.1296 C.ar    1  UNL1       -0.0606
      6 C          -3.7189    1.0043    2.0319 C.ar    1  UNL1       -0.0534
      7 C          -3.1967    0.4155    0.9267 C.ar    1  UNL1       -0.0083
      8 C          -1.7683    0.0806    0.9032 C.ar    1  UNL1        0.0115
      9 C          -0.8551    0.7516    0.0830 C.ar    1  UNL1       -0.0434
     10 C           0.5358    0.4229    0.0482 C.ar    1  UNL1       -0.0038
     11 C           1.4622    1.0931   -0.7752 C.ar    1  UNL1        0.0283
     12 C           1.2078    2.1258   -1.6442 C.ar    1  UNL1        0.1000
     13 O           2.3603    2.5065   -2.2620 O.2     1  UNL1       -0.4698
     14 C           3.3605    1.7107   -1.7836 C.ar    1  UNL1        0.1001
     15 C           2.8621    0.8209   -0.8637 C.ar    1  UNL1        0.0302
     16 C           3.5359   -0.1661   -0.1358 C.ar    1  UNL1        0.0203
     17 C           4.9045   -0.4723   -0.1855 C.ar    1  UNL1        0.0735
     18 N           5.9759    0.0287   -0.8900 N.ar    1  UNL1       -0.3589
     19 C           7.1273   -0.6415   -0.5613 C.ar    1  UNL1        0.0042
     20 C           6.8026   -1.5961    0.3738 C.ar    1  UNL1       -0.0183
     21 C           5.4133   -1.4940    0.6121 C.ar    1  UNL1        0.0891
     22 N           4.6550   -2.2268    1.4510 N.ar    1  UNL1       -0.2528
     23 C           3.3367   -1.9005    1.4712 C.ar    1  UNL1        0.0367
     24 C           2.6679   -0.9042    0.7344 C.ar    1  UNL1        0.0127
     25 C           1.1994   -0.6134    0.8223 C.ar    1  UNL1        0.0202
     26 C           0.2473   -1.3097    1.6741 C.ar    1  UNL1        0.1088
     27 N           0.5285   -2.3211    2.5157 N.ar    1  UNL1       -0.1901
     28 S          -0.8724   -2.7835    3.2542 S.2     1  UNL1        0.1165
     29 N          -1.9352   -1.7277    2.5665 N.ar    1  UNL1       -0.1901
     30 C          -1.2383   -0.9581    1.7111 C.ar    1  UNL1        0.1082
     31 C          -4.1064    0.2076   -0.1942 C.ar    1  UNL1       -0.0140
     32 C          -3.9028   -0.3460   -1.3997 C.2     1  UNL1       -0.0720
     33 H          -5.0762    0.2675   -3.0995 H       1  UNL1        0.0350
     34 H          -5.5101   -1.3372   -2.4372 H       1  UNL1        0.0350
     35 H          -7.1875    0.5169   -1.4415 H       1  UNL1        0.0581
     36 H          -7.0338    1.5330    1.1884 H       1  UNL1        0.0624
     37 H          -5.4503    1.8595    3.0630 H       1  UNL1        0.0618
     38 H          -3.1073    1.2042    2.9082 H       1  UNL1        0.0624
     39 H          -1.2367    1.5550   -0.5468 H       1  UNL1        0.0631
     40 H           0.3286    2.6831   -1.9359 H       1  UNL1        0.1036
     41 H           4.3276    1.9262   -2.2082 H       1  UNL1        0.1036
     42 H           5.9373    0.7827   -1.5579 H       1  UNL1        0.1654
     43 H           8.0724   -0.3815   -1.0193 H       1  UNL1        0.0807
     44 H           7.4816   -2.2956    0.8413 H       1  UNL1        0.0654
     45 H           2.7989   -2.5349    2.1693 H       1  UNL1        0.0836
     46 H          -2.9768   -0.7599   -1.7668 H       1  UNL1        0.0581
@<TRIPOS>BOND
     1     1     2    1
     2     2     3    2
     3     3     4   ar
     4     4     5   ar
     5     5     6   ar
     6     6     7   ar
     7     7     8    1
     8     8     9   ar
     9     9    10   ar
    10    10    11   ar
    11    11    12   ar
    12    12    13   ar
    13    13    14   ar
    14    14    15   ar
    15    15    16   ar
    16    16    17   ar
    17    17    18   ar
    18    18    19   ar
    19    19    20   ar
    20    20    21   ar
    21    21    22   ar
    22    22    23   ar
    23    23    24   ar
    24    24    25   ar
    25    25    26   ar
    26    26    27   ar
    27    27    28   ar
    28    28    29   ar
    29    29    30   ar
    30     7    31   ar
    31    31    32    2
    32    32     1    1
    33    31     3   ar
    34    30     8   ar
    35    25    10   ar
    36    30    26   ar
    37    15    11   ar
    38    24    16   ar
    39    21    17   ar
    40     1    33    1
    41     1    34    1
    42     2    35    1
    43     4    36    1
    44     5    37    1
    45     6    38    1
    46     9    39    1
    47    12    40    1
    48    14    41    1
    49    18    42    1
    50    19    43    1
    51    20    44    1
    52    23    45    1
    53    32    46    1
