@<TRIPOS>MOLECULE
*****
 47 54 0 0 0
SMALL
GASTEIGER

@<TRIPOS>ATOM
      1 C           4.2412    2.8003   -0.0574 C.3     1  UNL1       -0.0148
      2 C           5.4825    2.0245    0.2823 C.2     1  UNL1       -0.0725
      3 C           5.1793    0.7221    0.3541 C.ar    1  UNL1       -0.0211
      4 C           6.0301   -0.4048    0.6360 C.ar    1  UNL1       -0.0543
      5 C           5.4684   -1.6290    0.6358 C.ar    1  UNL1       -0.0605
      6 C           4.0389   -1.8329    0.3683 C.ar    1  UNL1       -0.0505
      7 C           3.1779   -0.8176    0.0958 C.ar    1  UNL1        0.0247
      8 C           1.7934   -1.1243   -0.1297 C.ar    1  UNL1        0.1369
      9 C           1.2043   -2.2554   -0.7036 C.ar    1  UNL1       -0.0074
     10 C          -0.1669   -2.0193   -0.6794 C.ar    1  UNL1        0.0296
     11 C          -1.2637   -2.7987   -1.1254 C.ar    1  UNL1        0.0005
     12 C          -1.1354   -4.0267   -1.7036 C.ar    1  UNL1       -0.0159
     13 S          -2.7001   -4.6123   -2.0856 S.2     1  UNL1       -0.1038
     14 C          -3.4630   -3.1903   -1.4570 C.ar    1  UNL1       -0.0160
     15 C          -2.5772   -2.2570   -0.9570 C.ar    1  UNL1       -0.0013
     16 C          -2.8906   -0.9981   -0.3781 C.ar    1  UNL1        0.0088
     17 C          -4.2210   -0.3644   -0.1801 C.ar    1  UNL1        0.0283
     18 S          -5.7341   -1.0121   -0.6358 S.2     1  UNL1       -0.0960
     19 C          -6.6022    0.3323   -0.0483 C.ar    1  UNL1       -0.0231
     20 C          -5.7700    1.2838    0.4914 C.ar    1  UNL1       -0.0464
     21 C          -4.4065    0.8852    0.4135 C.ar    1  UNL1       -0.0028
     22 C          -3.2697    1.6155    0.8671 C.ar    1  UNL1       -0.0129
     23 C          -3.1919    2.8106    1.4705 C.2     1  UNL1       -0.0719
     24 C          -1.7571    3.1336    1.7560 C.3     1  UNL1       -0.0148
     25 C          -1.0432    1.9296    1.2164 C.2     1  UNL1       -0.0718
     26 C          -1.9275    1.0573    0.7001 C.ar    1  UNL1       -0.0099
     27 C          -1.7263   -0.2600    0.0644 C.ar    1  UNL1        0.0341
     28 C          -0.4372   -0.8006   -0.1138 C.ar    1  UNL1        0.1446
     29 O           0.7709   -0.2505    0.2187 O.2     1  UNL1       -0.4542
     30 C           3.7566    0.5262    0.0831 C.ar    1  UNL1       -0.0111
     31 C           3.1993    1.7224   -0.1650 C.2     1  UNL1       -0.0719
     32 H           4.3568    3.3312   -1.0068 H       1  UNL1        0.0350
     33 H           3.9913    3.5112    0.7356 H       1  UNL1        0.0350
     34 H           6.4563    2.4631    0.4343 H       1  UNL1        0.0581
     35 H           7.0839   -0.2544    0.8363 H       1  UNL1        0.0624
     36 H           6.0674   -2.5106    0.8434 H       1  UNL1        0.0618
     37 H           3.7048   -2.8650    0.4261 H       1  UNL1        0.0625
     38 H           1.7344   -3.1132   -1.0913 H       1  UNL1        0.0662
     39 H          -0.2520   -4.6093   -1.9233 H       1  UNL1        0.0700
     40 H          -4.5374   -3.1791   -1.5175 H       1  UNL1        0.0700
     41 H          -7.6802    0.3632   -0.1273 H       1  UNL1        0.0694
     42 H          -6.1289    2.2129    0.9156 H       1  UNL1        0.0629
     43 H          -4.0191    3.4541    1.7253 H       1  UNL1        0.0581
     44 H          -1.4454    4.0433    1.2345 H       1  UNL1        0.0350
     45 H          -1.5839    3.2457    2.8302 H       1  UNL1        0.0350
     46 H           0.0285    1.8138    1.2616 H       1  UNL1        0.0581
     47 H           2.1640    1.9035   -0.4100 H       1  UNL1        0.0581
@<TRIPOS>BOND
     1     1     2    1
     2     2     3    2
     3     3     4   ar
     4     4     5   ar
     5     5     6   ar
     6     6     7   ar
     7     7     8    1
     8     8     9   ar
     9     9    10   ar
    10    10    11   ar
    11    11    12   ar
    12    12    13   ar
    13    13    14   ar
    14    14    15   ar
    15    15    16   ar
    16    16    17   ar
    17    17    18   ar
    18    18    19   ar
    19    19    20   ar
    20    20    21   ar
    21    21    22   ar
    22    22    23    2
    23    23    24    1
    24    24    25    1
    25    25    26    2
    26    26    27   ar
    27    27    28   ar
    28    28    29   ar
    29     7    30   ar
    30    30    31    2
    31    31     1    1
    32    30     3   ar
    33    29     8   ar
    34    28    10   ar
    35    15    11   ar
    36    27    16   ar
    37    21    17   ar
    38    26    22   ar
    39     1    32    1
    40     1    33    1
    41     2    34    1
    42     4    35    1
    43     5    36    1
    44     6    37    1
    45     9    38    1
    46    12    39    1
    47    14    40    1
    48    19    41    1
    49    20    42    1
    50    23    43    1
    51    24    44    1
    52    24    45    1
    53    25    46    1
    54    31    47    1
