@<TRIPOS>MOLECULE
*****
 48 55 0 0 0
SMALL
GASTEIGER

@<TRIPOS>ATOM
      1 C          -6.1511    0.7280    1.4410 C.3     1  UNL1       -0.0148
      2 C          -6.6323    0.8923    0.0256 C.2     1  UNL1       -0.0725
      3 C          -5.6762    0.4744   -0.8137 C.ar    1  UNL1       -0.0212
      4 C          -5.6637    0.4343   -2.2538 C.ar    1  UNL1       -0.0543
      5 C          -4.5569   -0.0400   -2.8593 C.ar    1  UNL1       -0.0606
      6 C          -3.3910   -0.5090   -2.0996 C.ar    1  UNL1       -0.0520
      7 C          -3.3353   -0.4915   -0.7432 C.ar    1  UNL1        0.0057
      8 C          -2.1634   -0.9848   -0.1072 C.ar    1  UNL1        0.0481
      9 C          -1.9341   -2.0124    0.7895 C.ar    1  UNL1       -0.0265
     10 C          -0.5646   -1.9642    1.0575 C.ar    1  UNL1        0.0290
     11 C           0.1971   -2.8108    1.9159 C.ar    1  UNL1        0.1096
     12 N          -0.3418   -3.8075    2.6014 N.ar    1  UNL1       -0.1901
     13 S           0.9816   -4.4398    3.4111 S.2     1  UNL1        0.1165
     14 N           2.1968   -3.4247    2.8651 N.ar    1  UNL1       -0.1901
     15 C           1.6216   -2.5397    2.0195 C.ar    1  UNL1        0.1083
     16 C           2.2733   -1.4771    1.3093 C.ar    1  UNL1        0.0129
     17 C           3.6615   -1.2224    1.4188 C.ar    1  UNL1       -0.0441
     18 C           4.2707   -0.1757    0.7142 C.ar    1  UNL1       -0.0166
     19 C           5.6923    0.0615    0.8454 C.ar    1  UNL1       -0.0534
     20 C           6.4180    1.0845    0.1871 C.ar    1  UNL1       -0.0520
     21 C           5.5749    1.8403   -0.6114 C.ar    1  UNL1        0.0000
     22 C           5.9489    2.9083   -1.3845 C.ar    1  UNL1        0.0094
     23 N           4.8090    3.3667   -2.0103 N.ar    1  UNL1       -0.3659
     24 C           3.7200    2.6016   -1.6426 C.ar    1  UNL1        0.0100
     25 C           4.1730    1.6419   -0.7694 C.ar    1  UNL1        0.0071
     26 C           3.4261    0.6278   -0.1235 C.ar    1  UNL1       -0.0081
     27 C           2.0370    0.3889   -0.2463 C.ar    1  UNL1       -0.0436
     28 C           1.4549   -0.6669    0.4708 C.ar    1  UNL1        0.0088
     29 C           0.0634   -0.9413    0.3744 C.ar    1  UNL1        0.0569
     30 N          -0.9606   -0.3412   -0.3361 N.ar    1  UNL1       -0.3536
     31 C          -4.5188    0.0114   -0.0533 C.ar    1  UNL1       -0.0127
     32 C          -4.7735    0.1547    1.2566 C.2     1  UNL1       -0.0719
     33 H          -6.1098    1.6920    1.9564 H       1  UNL1        0.0350
     34 H          -6.7929    0.0386    1.9973 H       1  UNL1        0.0350
     35 H          -7.5979    1.2858   -0.2507 H       1  UNL1        0.0581
     36 H          -6.5259    0.7747   -2.8142 H       1  UNL1        0.0624
     37 H          -4.5016   -0.0967   -3.9421 H       1  UNL1        0.0618
     38 H          -2.5692   -0.8996   -2.6945 H       1  UNL1        0.0624
     39 H          -2.6725   -2.6991    1.1831 H       1  UNL1        0.0645
     40 H           4.2621   -1.8588    2.0677 H       1  UNL1        0.0630
     41 H           6.2624   -0.5970    1.5043 H       1  UNL1        0.0624
     42 H           7.4809    1.2341    0.3077 H       1  UNL1        0.0624
     43 H           6.9034    3.3878   -1.5533 H       1  UNL1        0.0813
     44 H           4.7759    4.1519   -2.6475 H       1  UNL1        0.1648
     45 H           2.7404    2.8232   -2.0415 H       1  UNL1        0.0813
     46 H           1.4444    1.0262   -0.8930 H       1  UNL1        0.0631
     47 H          -0.8518    0.4675   -0.9317 H       1  UNL1        0.1659
     48 H          -4.1049   -0.0981    2.0652 H       1  UNL1        0.0581
@<TRIPOS>BOND
     1     1     2    1
     2     2     3    2
     3     3     4   ar
     4     4     5   ar
     5     5     6   ar
     6     6     7   ar
     7     7     8    1
     8     8     9   ar
     9     9    10   ar
    10    10    11   ar
    11    11    12   ar
    12    12    13   ar
    13    13    14   ar
    14    14    15   ar
    15    15    16   ar
    16    16    17   ar
    17    17    18   ar
    18    18    19   ar
    19    19    20   ar
    20    20    21   ar
    21    21    22   ar
    22    22    23   ar
    23    23    24   ar
    24    24    25   ar
    25    25    26   ar
    26    26    27   ar
    27    27    28   ar
    28    28    29   ar
    29    29    30   ar
    30     7    31   ar
    31    31    32    2
    32    32     1    1
    33    31     3   ar
    34    30     8   ar
    35    29    10   ar
    36    15    11   ar
    37    28    16   ar
    38    26    18   ar
    39    25    21   ar
    40     1    33    1
    41     1    34    1
    42     2    35    1
    43     4    36    1
    44     5    37    1
    45     6    38    1
    46     9    39    1
    47    17    40    1
    48    19    41    1
    49    20    42    1
    50    22    43    1
    51    23    44    1
    52    24    45    1
    53    27    46    1
    54    30    47    1
    55    32    48    1
