@<TRIPOS>MOLECULE
*****
 41 46 0 0 0
SMALL
GASTEIGER

@<TRIPOS>ATOM
      1 C           5.5313   -1.6763    1.5154 C.3     1  UNL1       -0.0148
      2 C           6.4874   -0.8576    0.6934 C.2     1  UNL1       -0.0725
      3 C           5.7900   -0.0636   -0.1290 C.ar    1  UNL1       -0.0212
      4 C           6.2540    0.8856   -1.1083 C.ar    1  UNL1       -0.0543
      5 C           5.3274    1.5583   -1.8188 C.ar    1  UNL1       -0.0606
      6 C           3.8876    1.3547   -1.6154 C.ar    1  UNL1       -0.0529
      7 C           3.3829    0.4719   -0.7152 C.ar    1  UNL1       -0.0039
      8 C           1.9623    0.3750   -0.5725 C.ar    1  UNL1        0.0210
      9 C           1.1903    0.6519    0.5403 C.ar    1  UNL1       -0.0392
     10 C          -0.2121    0.4250    0.3444 C.ar    1  UNL1       -0.0096
     11 C          -1.3054    0.5959    1.2271 C.ar    1  UNL1       -0.0457
     12 C          -2.6204    0.3065    0.8206 C.ar    1  UNL1       -0.0152
     13 C          -3.7072    0.4763    1.6967 C.ar    1  UNL1       -0.0280
     14 C          -5.0143    0.1981    1.3220 C.ar    1  UNL1        0.0716
     15 N          -6.0102    0.3816    2.2077 N.ar    1  UNL1       -0.2550
     16 C          -7.2713    0.1016    1.8119 C.ar    1  UNL1        0.0283
     17 C          -7.5986   -0.3617    0.5523 C.ar    1  UNL1       -0.0430
     18 C          -6.5676   -0.5500   -0.3596 C.ar    1  UNL1       -0.0511
     19 C          -5.2461   -0.2703    0.0145 C.ar    1  UNL1        0.0010
     20 C          -4.1712   -0.4458   -0.8747 C.ar    1  UNL1       -0.0448
     21 C          -2.8554   -0.1608   -0.4828 C.ar    1  UNL1       -0.0161
     22 C          -1.7804   -0.3358   -1.3699 C.ar    1  UNL1       -0.0397
     23 C          -0.4711   -0.0396   -0.9424 C.ar    1  UNL1        0.0205
     24 S           0.9757   -0.1851   -1.8610 S.2     1  UNL1       -0.0882
     25 C           4.3593   -0.2764    0.0728 C.ar    1  UNL1       -0.0136
     26 C           4.1892   -1.2117    1.0205 C.2     1  UNL1       -0.0719
     27 H           5.6507   -1.4673    2.5826 H       1  UNL1        0.0350
     28 H           5.6696   -2.7456    1.3303 H       1  UNL1        0.0350
     29 H           7.5622   -0.9180    0.7634 H       1  UNL1        0.0581
     30 H           7.3159    1.0371   -1.2583 H       1  UNL1        0.0624
     31 H           5.6257    2.2827   -2.5704 H       1  UNL1        0.0618
     32 H           3.2348    1.9707   -2.2292 H       1  UNL1        0.0624
     33 H           1.6164    1.0120    1.4695 H       1  UNL1        0.0635
     34 H          -1.1138    0.9583    2.2349 H       1  UNL1        0.0630
     35 H          -3.5377    0.8379    2.7091 H       1  UNL1        0.0645
     36 H          -8.0375    0.2667    2.5642 H       1  UNL1        0.0830
     37 H          -8.6286   -0.5707    0.2873 H       1  UNL1        0.0633
     38 H          -6.7977   -0.9137   -1.3576 H       1  UNL1        0.0625
     39 H          -4.3652   -0.8087   -1.8824 H       1  UNL1        0.0630
     40 H          -1.9462   -0.6976   -2.3815 H       1  UNL1        0.0635
     41 H           3.2451   -1.5915    1.3797 H       1  UNL1        0.0581
@<TRIPOS>BOND
     1     1     2    1
     2     2     3    2
     3     3     4   ar
     4     4     5   ar
     5     5     6   ar
     6     6     7   ar
     7     7     8    1
     8     8     9   ar
     9     9    10   ar
    10    10    11   ar
    11    11    12   ar
    12    12    13   ar
    13    13    14   ar
    14    14    15   ar
    15    15    16   ar
    16    16    17   ar
    17    17    18   ar
    18    18    19   ar
    19    19    20   ar
    20    20    21   ar
    21    21    22   ar
    22    22    23   ar
    23    23    24   ar
    24     7    25   ar
    25    25    26    2
    26    26     1    1
    27    25     3   ar
    28    24     8   ar
    29    23    10   ar
    30    21    12   ar
    31    19    14   ar
    32     1    27    1
    33     1    28    1
    34     2    29    1
    35     4    30    1
    36     5    31    1
    37     6    32    1
    38     9    33    1
    39    11    34    1
    40    13    35    1
    41    16    36    1
    42    17    37    1
    43    18    38    1
    44    20    39    1
    45    22    40    1
    46    26    41    1
