@<TRIPOS>MOLECULE
*****
 45 51 0 0 0
SMALL
GASTEIGER

@<TRIPOS>ATOM
      1 C           6.6073   -1.5097    1.0277 C.3     1  UNL1       -0.0148
      2 C           7.2226   -0.5488    0.0523 C.2     1  UNL1       -0.0725
      3 C           6.2569    0.2051   -0.4882 C.ar    1  UNL1       -0.0211
      4 C           6.3550    1.2342   -1.4907 C.ar    1  UNL1       -0.0543
      5 C           5.2148    1.8265   -1.8936 C.ar    1  UNL1       -0.0605
      6 C           3.9089    1.4642   -1.3323 C.ar    1  UNL1       -0.0505
      7 C           3.7414    0.5164   -0.3732 C.ar    1  UNL1        0.0247
      8 C           2.4066    0.3000    0.1058 C.ar    1  UNL1        0.1368
      9 C           1.9608   -0.0617    1.3762 C.ar    1  UNL1       -0.0080
     10 C           0.5469   -0.1452    1.3490 C.ar    1  UNL1        0.0243
     11 C          -0.4696   -0.4500    2.2589 C.ar    1  UNL1       -0.0079
     12 C          -1.7886   -0.4139    1.8160 C.ar    1  UNL1        0.1371
     13 O          -2.8765   -0.6851    2.5776 O.2     1  UNL1       -0.4548
     14 C          -3.9669   -0.5401    1.7799 C.ar    1  UNL1        0.1369
     15 C          -5.2759   -0.7360    2.2090 C.ar    1  UNL1       -0.0181
     16 C          -6.2846   -0.5463    1.2633 C.ar    1  UNL1       -0.0505
     17 C          -5.9940   -0.1760   -0.0572 C.ar    1  UNL1       -0.0171
     18 C          -7.0286    0.0077   -0.9872 C.ar    1  UNL1       -0.0540
     19 C          -6.7525    0.3760   -2.3048 C.ar    1  UNL1       -0.0612
     20 C          -5.4369    0.5666   -2.7141 C.ar    1  UNL1       -0.0611
     21 C          -4.3893    0.3903   -1.8084 C.ar    1  UNL1       -0.0533
     22 C          -4.6459    0.0183   -0.4714 C.ar    1  UNL1       -0.0065
     23 C          -3.5996   -0.1719    0.4863 C.ar    1  UNL1        0.0357
     24 C          -2.1643   -0.0893    0.5142 C.ar    1  UNL1        0.0320
     25 C          -1.1338    0.2182   -0.3902 C.ar    1  UNL1       -0.0074
     26 C           0.1839    0.1809    0.0552 C.ar    1  UNL1        0.1365
     27 O           1.2832    0.4551   -0.6889 O.2     1  UNL1       -0.4548
     28 C           4.9572   -0.1666    0.0726 C.ar    1  UNL1       -0.0111
     29 C           5.1439   -1.1713    0.9445 C.2     1  UNL1       -0.0719
     30 H           6.9919   -1.3467    2.0387 H       1  UNL1        0.0350
     31 H           6.7880   -2.5456    0.7261 H       1  UNL1        0.0350
     32 H           8.2753   -0.4994   -0.1783 H       1  UNL1        0.0581
     33 H           7.3197    1.5024   -1.9039 H       1  UNL1        0.0624
     34 H           5.2324    2.6039   -2.6513 H       1  UNL1        0.0618
     35 H           3.0615    2.0242   -1.7220 H       1  UNL1        0.0625
     36 H           2.5950   -0.2314    2.2345 H       1  UNL1        0.0661
     37 H          -0.2458   -0.7101    3.2883 H       1  UNL1        0.0661
     38 H          -5.4954   -1.0223    3.2307 H       1  UNL1        0.0655
     39 H          -7.3174   -0.6937    1.5751 H       1  UNL1        0.0625
     40 H          -8.0663   -0.1353   -0.6926 H       1  UNL1        0.0624
     41 H          -7.5670    0.5136   -3.0115 H       1  UNL1        0.0618
     42 H          -5.2233    0.8532   -3.7409 H       1  UNL1        0.0618
     43 H          -3.3779    0.5473   -2.1639 H       1  UNL1        0.0624
     44 H          -1.3355    0.4828   -1.4207 H       1  UNL1        0.0662
     45 H           4.3823   -1.6905    1.5035 H       1  UNL1        0.0581
@<TRIPOS>BOND
     1     1     2    1
     2     2     3    2
     3     3     4   ar
     4     4     5   ar
     5     5     6   ar
     6     6     7   ar
     7     7     8    1
     8     8     9   ar
     9     9    10   ar
    10    10    11   ar
    11    11    12   ar
    12    12    13   ar
    13    13    14   ar
    14    14    15   ar
    15    15    16   ar
    16    16    17   ar
    17    17    18   ar
    18    18    19   ar
    19    19    20   ar
    20    20    21   ar
    21    21    22   ar
    22    22    23   ar
    23    23    24   ar
    24    24    25   ar
    25    25    26   ar
    26    26    27   ar
    27     7    28   ar
    28    28    29    2
    29    29     1    1
    30    28     3   ar
    31    27     8   ar
    32    26    10   ar
    33    24    12   ar
    34    23    14   ar
    35    22    17   ar
    36     1    30    1
    37     1    31    1
    38     2    32    1
    39     4    33    1
    40     5    34    1
    41     6    35    1
    42     9    36    1
    43    11    37    1
    44    15    38    1
    45    16    39    1
    46    18    40    1
    47    19    41    1
    48    20    42    1
    49    21    43    1
    50    25    44    1
    51    29    45    1
