@<TRIPOS>MOLECULE
*****
 38 43 0 0 0
SMALL
GASTEIGER

@<TRIPOS>ATOM
      1 C          -5.0711    1.8351    0.7988 C.3     1  UNL1       -0.0148
      2 C          -5.8880    0.6731    0.3068 C.2     1  UNL1       -0.0725
      3 C          -5.0648   -0.2815   -0.1451 C.ar    1  UNL1       -0.0212
      4 C          -5.3696   -1.5766   -0.6973 C.ar    1  UNL1       -0.0543
      5 C          -4.3375   -2.3586   -1.0703 C.ar    1  UNL1       -0.0606
      6 C          -2.9411   -1.9251   -0.9372 C.ar    1  UNL1       -0.0529
      7 C          -2.5833   -0.7214   -0.4196 C.ar    1  UNL1       -0.0039
      8 C          -1.1933   -0.3827   -0.3679 C.ar    1  UNL1        0.0211
      9 C          -0.5430    0.6634   -0.9921 C.ar    1  UNL1       -0.0391
     10 C           0.8633    0.7279   -0.7119 C.ar    1  UNL1       -0.0081
     11 C           1.8385    1.6487   -1.1767 C.ar    1  UNL1       -0.0527
     12 C           3.1712    1.5374   -0.7815 C.ar    1  UNL1       -0.0484
     13 C           3.5343    0.5016    0.0827 C.ar    1  UNL1        0.0443
     14 C           4.8384    0.2854    0.5499 C.ar    1  UNL1        0.1454
     15 O           5.9417    1.0315    0.2461 O.2     1  UNL1       -0.4622
     16 C           6.9909    0.4783    0.9076 C.ar    1  UNL1        0.0932
     17 C           6.5828   -0.6154    1.6355 C.ar    1  UNL1       -0.0146
     18 C           5.1865   -0.7498    1.4104 C.ar    1  UNL1        0.0388
     19 C           4.1829   -1.6236    1.8335 C.ar    1  UNL1        0.0391
     20 N           2.9039   -1.4583    1.4102 N.ar    1  UNL1       -0.2530
     21 C           2.6065   -0.4328    0.5695 C.ar    1  UNL1        0.0888
     22 C           1.2593   -0.2994    0.1549 C.ar    1  UNL1        0.0459
     23 S          -0.0932   -1.2855    0.5872 S.2     1  UNL1       -0.0861
     24 C          -3.6775    0.1523   -0.0021 C.ar    1  UNL1       -0.0136
     25 C          -3.6608    1.3768    0.5480 C.2     1  UNL1       -0.0719
     26 H          -5.2426    2.0130    1.8645 H       1  UNL1        0.0350
     27 H          -5.2962    2.7430    0.2316 H       1  UNL1        0.0350
     28 H          -6.9656    0.6285    0.3297 H       1  UNL1        0.0581
     29 H          -6.3994   -1.8974   -0.7959 H       1  UNL1        0.0624
     30 H          -4.5138   -3.3451   -1.4881 H       1  UNL1        0.0618
     31 H          -2.1945   -2.6310   -1.2933 H       1  UNL1        0.0624
     32 H          -1.0581    1.3640   -1.6392 H       1  UNL1        0.0635
     33 H           1.5445    2.4512   -1.8500 H       1  UNL1        0.0624
     34 H           3.9114    2.2466   -1.1426 H       1  UNL1        0.0625
     35 H           7.9440    0.9680    0.7618 H       1  UNL1        0.1030
     36 H           7.2134   -1.2395    2.2526 H       1  UNL1        0.0655
     37 H           4.3630   -2.4571    2.5031 H       1  UNL1        0.0837
     38 H          -2.7826    1.9549    0.7907 H       1  UNL1        0.0581
@<TRIPOS>BOND
     1     1     2    1
     2     2     3    2
     3     3     4   ar
     4     4     5   ar
     5     5     6   ar
     6     6     7   ar
     7     7     8    1
     8     8     9   ar
     9     9    10   ar
    10    10    11   ar
    11    11    12   ar
    12    12    13   ar
    13    13    14   ar
    14    14    15   ar
    15    15    16   ar
    16    16    17   ar
    17    17    18   ar
    18    18    19   ar
    19    19    20   ar
    20    20    21   ar
    21    21    22   ar
    22    22    23   ar
    23     7    24   ar
    24    24    25    2
    25    25     1    1
    26    24     3   ar
    27    23     8   ar
    28    22    10   ar
    29    21    13   ar
    30    18    14   ar
    31     1    26    1
    32     1    27    1
    33     2    28    1
    34     4    29    1
    35     5    30    1
    36     6    31    1
    37     9    32    1
    38    11    33    1
    39    12    34    1
    40    16    35    1
    41    17    36    1
    42    19    37    1
    43    25    38    1
