@<TRIPOS>MOLECULE
*****
 46 52 0 0 0
SMALL
GASTEIGER

@<TRIPOS>ATOM
      1 C           5.9406    2.3961    0.7437 C.3     1  UNL1       -0.0148
      2 C           6.8079    1.1708    0.8327 C.2     1  UNL1       -0.0725
      3 C           6.0748    0.0918    0.5299 C.ar    1  UNL1       -0.0212
      4 C           6.4524   -1.2977    0.4805 C.ar    1  UNL1       -0.0543
      5 C           5.5040   -2.1946    0.1449 C.ar    1  UNL1       -0.0606
      6 C           4.1262   -1.7947   -0.1683 C.ar    1  UNL1       -0.0520
      7 C           3.7044   -0.5048   -0.1342 C.ar    1  UNL1        0.0057
      8 C           2.3530   -0.2268   -0.4721 C.ar    1  UNL1        0.0481
      9 C           1.7558    0.5169   -1.4677 C.ar    1  UNL1       -0.0272
     10 C           0.3482    0.4486   -1.2807 C.ar    1  UNL1        0.0190
     11 C          -0.7504    0.9765   -1.9572 C.ar    1  UNL1        0.0375
     12 N          -2.0140    0.7332   -1.5239 N.ar    1  UNL1       -0.2535
     13 C          -2.2619   -0.0234   -0.4258 C.ar    1  UNL1        0.0841
     14 C          -1.1987   -0.5864    0.3057 C.ar    1  UNL1        0.0430
     15 C          -1.4563   -1.3647    1.4376 C.ar    1  UNL1        0.0394
     16 N          -2.6916   -1.6268    1.8971 N.ar    1  UNL1       -0.2542
     17 C          -3.7172   -1.0888    1.1980 C.ar    1  UNL1        0.0736
     18 C          -5.0536   -1.4121    1.7524 C.ar    1  UNL1       -0.0351
     19 C          -6.1895   -0.9642    1.1899 C.ar    1  UNL1       -0.0523
     20 C          -6.0988   -0.1451    0.0121 C.ar    1  UNL1       -0.0210
     21 C          -7.0933    0.4007   -0.7003 C.2     1  UNL1       -0.0725
     22 C          -6.5133    1.1749   -1.8476 C.3     1  UNL1       -0.0148
     23 C          -5.0376    0.9728   -1.6600 C.2     1  UNL1       -0.0718
     24 C          -4.8101    0.2066   -0.5796 C.ar    1  UNL1       -0.0106
     25 C          -3.5584   -0.2864    0.0395 C.ar    1  UNL1        0.0338
     26 C           0.1158   -0.3325   -0.1504 C.ar    1  UNL1        0.0591
     27 N           1.3499   -0.7221    0.3261 N.ar    1  UNL1       -0.3535
     28 C           4.7056    0.4951    0.2220 C.ar    1  UNL1       -0.0127
     29 C           4.6067    1.8279    0.3446 C.2     1  UNL1       -0.0719
     30 H           6.3156    3.0894   -0.0148 H       1  UNL1        0.0350
     31 H           5.8779    2.9043    1.7104 H       1  UNL1        0.0350
     32 H           7.8527    1.1785    1.1012 H       1  UNL1        0.0581
     33 H           7.4697   -1.5927    0.7070 H       1  UNL1        0.0624
     34 H           5.7407   -3.2529    0.0891 H       1  UNL1        0.0618
     35 H           3.4569   -2.6019   -0.4554 H       1  UNL1        0.0624
     36 H           2.2793    1.0494   -2.2517 H       1  UNL1        0.0645
     37 H          -0.6582    1.5942   -2.8434 H       1  UNL1        0.0836
     38 H          -0.6594   -1.8116    2.0231 H       1  UNL1        0.0837
     39 H          -5.0718   -2.0326    2.6414 H       1  UNL1        0.0639
     40 H          -7.1609   -1.2072    1.6045 H       1  UNL1        0.0624
     41 H          -8.1491    0.3098   -0.4977 H       1  UNL1        0.0581
     42 H          -6.8479    0.7689   -2.8066 H       1  UNL1        0.0350
     43 H          -6.7775    2.2344   -1.7821 H       1  UNL1        0.0350
     44 H          -4.2900    1.3943   -2.3144 H       1  UNL1        0.0581
     45 H           1.5056   -1.2816    1.1533 H       1  UNL1        0.1659
     46 H           3.7160    2.4165    0.1875 H       1  UNL1        0.0581
@<TRIPOS>BOND
     1     1     2    1
     2     2     3    2
     3     3     4   ar
     4     4     5   ar
     5     5     6   ar
     6     6     7   ar
     7     7     8    1
     8     8     9   ar
     9     9    10   ar
    10    10    11   ar
    11    11    12   ar
    12    12    13   ar
    13    13    14   ar
    14    14    15   ar
    15    15    16   ar
    16    16    17   ar
    17    17    18   ar
    18    18    19   ar
    19    19    20   ar
    20    20    21    2
    21    21    22    1
    22    22    23    1
    23    23    24    2
    24    24    25   ar
    25    14    26   ar
    26    26    27   ar
    27     7    28   ar
    28    28    29    2
    29    29     1    1
    30    28     3   ar
    31    27     8   ar
    32    26    10   ar
    33    25    13   ar
    34    25    17   ar
    35    24    20   ar
    36     1    30    1
    37     1    31    1
    38     2    32    1
    39     4    33    1
    40     5    34    1
    41     6    35    1
    42     9    36    1
    43    11    37    1
    44    15    38    1
    45    18    39    1
    46    19    40    1
    47    21    41    1
    48    22    42    1
    49    22    43    1
    50    23    44    1
    51    27    45    1
    52    29    46    1
