@<TRIPOS>MOLECULE
*****
 45 51 0 0 0
SMALL
GASTEIGER

@<TRIPOS>ATOM
      1 C           5.4924    1.4828    1.4981 C.3     1  UNL1        0.0000
      2 C           6.4550    0.5933    0.7623 C.2     1  UNL1        0.0000
      3 C           5.7725   -0.3923    0.1656 C.ar    1  UNL1        0.0000
      4 C           6.2507   -1.4894   -0.6363 C.ar    1  UNL1        0.0000
      5 C           5.3415   -2.3632   -1.1112 C.ar    1  UNL1        0.0000
      6 C           3.9059   -2.2203   -0.8403 C.ar    1  UNL1        0.0000
      7 C           3.3871   -1.2052   -0.1020 C.ar    1  UNL1        0.0000
      8 C           1.9691   -1.1746    0.0807 C.ar    1  UNL1        0.0000
      9 C           1.1555   -2.0855    0.7175 C.ar    1  UNL1        0.0000
     10 C          -0.2218   -1.7228    0.6937 C.ar    1  UNL1        0.0000
     11 N          -1.1909   -2.4779    1.2664 N.ar    1  UNL1        0.0000
     12 C          -2.4430   -2.0023    1.1627 C.ar    1  UNL1        0.0000
     13 C          -2.8271   -0.8252    0.5298 C.ar    1  UNL1        0.0000
     14 C          -4.2395   -0.3809    0.4681 C.ar    1  UNL1        0.0000
     15 SI         -5.7173   -1.2909    1.2070 Si      1  UNL1        0.0000
     16 C          -6.8184    0.0640    0.5703 C.2     1  UNL1        0.0000
     17 C          -6.0982    0.9973   -0.0758 C.2     1  UNL1        0.0000
     18 C          -4.6493    0.7624   -0.1420 C.ar    1  UNL1        0.0000
     19 C          -3.6479    1.6069   -0.7758 C.ar    1  UNL1        0.0000
     20 C          -3.9269    2.7629   -1.4131 C.2     1  UNL1        0.0000
     21 SI         -2.3974    3.5604   -2.0951 Si      1  UNL1        0.0000
     22 C          -1.4231    2.1286   -1.3940 C.2     1  UNL1        0.0000
     23 C          -2.2032    1.2283   -0.7569 C.ar    1  UNL1        0.0000
     24 C          -1.8042   -0.0388   -0.0716 C.ar    1  UNL1        0.0000
     25 C          -0.4700   -0.5178    0.0241 C.ar    1  UNL1        0.0000
     26 S           1.0341    0.1092   -0.5511 S.2     1  UNL1        0.0000
     27 C           4.3451   -0.2436    0.4392 C.ar    1  UNL1        0.0000
     28 C           4.1646    0.8351    1.2176 C.2     1  UNL1        0.0000
     29 H           5.5222    2.5041    1.1072 H       1  UNL1        0.0000
     30 H           5.7065    1.4912    2.5708 H       1  UNL1        0.0000
     31 H           7.5238    0.7368    0.7361 H       1  UNL1        0.0000
     32 H           7.3098   -1.5946   -0.8376 H       1  UNL1        0.0000
     33 H           5.6517   -3.2073   -1.7196 H       1  UNL1        0.0000
     34 H           3.2659   -2.9790   -1.2845 H       1  UNL1        0.0000
     35 H           1.5248   -2.9838    1.1957 H       1  UNL1        0.0000
     36 H          -3.1649   -2.6558    1.6439 H       1  UNL1        0.0000
     37 H          -5.6575   -1.3432    2.6881 H       1  UNL1        0.0000
     38 H          -5.9584   -2.5955    0.5440 H       1  UNL1        0.0000
     39 H          -7.8863    0.0623    0.7211 H       1  UNL1        0.0000
     40 H          -6.5450    1.8748   -0.5256 H       1  UNL1        0.0000
     41 H          -4.8916    3.2236   -1.5477 H       1  UNL1        0.0000
     42 H          -2.0774    4.8452   -1.4277 H       1  UNL1        0.0000
     43 H          -2.3802    3.5877   -3.5774 H       1  UNL1        0.0000
     44 H          -0.3612    2.1346   -1.5481 H       1  UNL1        0.0000
     45 H           3.2222    1.1985    1.5974 H       1  UNL1        0.0000
@<TRIPOS>BOND
     1     1     2    1
     2     2     3    2
     3     3     4   ar
     4     4     5   ar
     5     5     6   ar
     6     6     7   ar
     7     7     8    1
     8     8     9   ar
     9     9    10   ar
    10    10    11   ar
    11    11    12   ar
    12    12    13   ar
    13    13    14   ar
    14    14    15    1
    15    15    16    1
    16    16    17    2
    17    17    18    1
    18    18    19   ar
    19    19    20    2
    20    20    21    1
    21    21    22    1
    22    22    23    2
    23    23    24   ar
    24    24    25   ar
    25    25    26   ar
    26     7    27   ar
    27    27    28    2
    28    28     1    1
    29    27     3   ar
    30    26     8   ar
    31    25    10   ar
    32    24    13   ar
    33    18    14   ar
    34    23    19   ar
    35     1    29    1
    36     1    30    1
    37     2    31    1
    38     4    32    1
    39     5    33    1
    40     6    34    1
    41     9    35    1
    42    12    36    1
    43    15    37    1
    44    15    38    1
    45    16    39    1
    46    17    40    1
    47    20    41    1
    48    21    42    1
    49    21    43    1
    50    22    44    1
    51    28    45    1
