@<TRIPOS>MOLECULE
*****
 45 51 0 0 0
SMALL
GASTEIGER

@<TRIPOS>ATOM
      1 C           5.6082   -1.3203    1.9747 C.3     1  UNL1        0.0000
      2 C           6.3474   -0.2531    1.2154 C.2     1  UNL1        0.0000
      3 C           5.5269    0.2840    0.3034 C.ar    1  UNL1        0.0000
      4 C           5.7697    1.3321   -0.6549 C.ar    1  UNL1        0.0000
      5 C           4.7546    1.6879   -1.4670 C.ar    1  UNL1        0.0000
      6 C           3.4373    1.0425   -1.3998 C.ar    1  UNL1        0.0000
      7 C           3.1410    0.0544   -0.5170 C.ar    1  UNL1        0.0000
      8 C           1.8391   -0.5131   -0.5488 C.ar    1  UNL1        0.0000
      9 C           1.3613   -1.7890   -0.7636 C.ar    1  UNL1        0.0000
     10 C          -0.0467   -1.7445   -0.6406 C.ar    1  UNL1        0.0000
     11 N          -0.9289   -2.7596   -0.7789 N.ar    1  UNL1        0.0000
     12 C          -2.2270   -2.4185   -0.6005 C.ar    1  UNL1        0.0000
     13 C          -2.7403   -1.1500   -0.2920 C.ar    1  UNL1        0.0000
     14 C          -4.1489   -0.8680   -0.1159 C.ar    1  UNL1        0.0000
     15 SI         -5.6422   -2.0459   -0.2396 Si      1  UNL1        0.0000
     16 C          -6.7896   -0.6091    0.1582 C.2     1  UNL1        0.0000
     17 C          -6.1390    0.5527    0.3486 C.2     1  UNL1        0.0000
     18 C          -4.6947    0.4174    0.2001 C.ar    1  UNL1        0.0000
     19 C          -3.7197    1.3957    0.3252 C.ar    1  UNL1        0.0000
     20 C          -3.9014    2.7224    0.6202 C.ar    1  UNL1        0.0000
     21 N          -2.6539    3.3016    0.6392 N.ar    1  UNL1        0.0000
     22 C          -1.6821    2.3593    0.3585 C.ar    1  UNL1        0.0000
     23 C          -2.3136    1.1540    0.1574 C.ar    1  UNL1        0.0000
     24 C          -1.7634   -0.1078   -0.1540 C.ar    1  UNL1        0.0000
     25 C          -0.4154   -0.4355   -0.3357 C.ar    1  UNL1        0.0000
     26 N           0.7528    0.2865   -0.2754 N.ar    1  UNL1        0.0000
     27 C           4.2184   -0.3599    0.3758 C.ar    1  UNL1        0.0000
     28 C           4.2445   -1.2904    1.3426 C.2     1  UNL1        0.0000
     29 H           6.0820   -2.2974    1.8421 H       1  UNL1        0.0000
     30 H           5.5530   -1.0777    3.0400 H       1  UNL1        0.0000
     31 H           7.3754    0.0224    1.3910 H       1  UNL1        0.0000
     32 H           6.7431    1.8042   -0.7087 H       1  UNL1        0.0000
     33 H           4.8899    2.4675   -2.2105 H       1  UNL1        0.0000
     34 H           2.7062    1.3899   -2.1257 H       1  UNL1        0.0000
     35 H           1.9553   -2.6632   -0.9906 H       1  UNL1        0.0000
     36 H          -2.8909   -3.2709   -0.7242 H       1  UNL1        0.0000
     37 H          -5.8358   -2.5609   -1.6174 H       1  UNL1        0.0000
     38 H          -5.6324   -3.0757    0.8284 H       1  UNL1        0.0000
     39 H          -7.8569   -0.7584    0.2155 H       1  UNL1        0.0000
     40 H          -6.6121    1.4947    0.5863 H       1  UNL1        0.0000
     41 H          -4.7863    3.3114    0.8184 H       1  UNL1        0.0000
     42 H          -2.4735    4.2785    0.8316 H       1  UNL1        0.0000
     43 H          -0.6505    2.6709    0.3385 H       1  UNL1        0.0000
     44 H           0.8161    1.2659   -0.0471 H       1  UNL1        0.0000
     45 H           3.4230   -1.9271    1.6338 H       1  UNL1        0.0000
@<TRIPOS>BOND
     1     1     2    1
     2     2     3    2
     3     3     4   ar
     4     4     5   ar
     5     5     6   ar
     6     6     7   ar
     7     7     8    1
     8     8     9   ar
     9     9    10   ar
    10    10    11   ar
    11    11    12   ar
    12    12    13   ar
    13    13    14   ar
    14    14    15    1
    15    15    16    1
    16    16    17    2
    17    17    18    1
    18    18    19   ar
    19    19    20   ar
    20    20    21   ar
    21    21    22   ar
    22    22    23   ar
    23    23    24   ar
    24    24    25   ar
    25    25    26   ar
    26     7    27   ar
    27    27    28    2
    28    28     1    1
    29    27     3   ar
    30    26     8   ar
    31    25    10   ar
    32    24    13   ar
    33    18    14   ar
    34    23    19   ar
    35     1    29    1
    36     1    30    1
    37     2    31    1
    38     4    32    1
    39     5    33    1
    40     6    34    1
    41     9    35    1
    42    12    36    1
    43    15    37    1
    44    15    38    1
    45    16    39    1
    46    17    40    1
    47    20    41    1
    48    21    42    1
    49    22    43    1
    50    26    44    1
    51    28    45    1
