@<TRIPOS>MOLECULE
*****
 43 49 0 0 0
SMALL
GASTEIGER

@<TRIPOS>ATOM
      1 C          -5.6757   -1.2959    1.4303 C.3     1  UNL1        0.0000
      2 C          -6.4369   -0.2435    0.6733 C.2     1  UNL1        0.0000
      3 C          -5.5933    0.4129   -0.1334 C.ar    1  UNL1        0.0000
      4 C          -5.8454    1.5021   -1.0416 C.ar    1  UNL1        0.0000
      5 C          -4.8024    1.9901   -1.7415 C.ar    1  UNL1        0.0000
      6 C          -3.4465    1.4433   -1.6062 C.ar    1  UNL1        0.0000
      7 C          -3.1382    0.4231   -0.7641 C.ar    1  UNL1        0.0000
      8 C          -1.7901   -0.0555   -0.7302 C.ar    1  UNL1        0.0000
      9 C          -1.3181   -1.3119   -1.0417 C.ar    1  UNL1        0.0000
     10 C           0.0896   -1.4465   -0.8709 C.ar    1  UNL1        0.0000
     11 N           0.7569   -2.6028   -1.1294 N.ar    1  UNL1        0.0000
     12 C           2.0828   -2.5764   -0.9225 C.ar    1  UNL1        0.0000
     13 C           2.7873   -1.4775   -0.4740 C.ar    1  UNL1        0.0000
     14 C           4.2205   -1.4980   -0.2665 C.ar    1  UNL1        0.0000
     15 O           4.9549   -2.6126   -0.5063 O.2     1  UNL1        0.0000
     16 C           6.2453   -2.2783   -0.2093 C.ar    1  UNL1        0.0000
     17 C           6.3327   -0.9662    0.2148 C.ar    1  UNL1        0.0000
     18 C           5.0161   -0.4691    0.1743 C.ar    1  UNL1        0.0000
     19 C           4.4103    0.7810    0.4761 C.ar    1  UNL1        0.0000
     20 C           5.0466    1.8820    0.9179 C.2     1  UNL1        0.0000
     21 SI          3.8592    3.2834    1.1831 Si      1  UNL1        0.0000
     22 C           2.4776    2.1488    0.6198 C.2     1  UNL1        0.0000
     23 C           2.9164    0.9131    0.2948 C.ar    1  UNL1        0.0000
     24 C           2.1042   -0.2617   -0.1962 C.ar    1  UNL1        0.0000
     25 C           0.7047   -0.2711   -0.4110 C.ar    1  UNL1        0.0000
     26 S          -0.5032    0.9459   -0.2111 S.2     1  UNL1        0.0000
     27 C          -4.2458   -0.1313    0.0110 C.ar    1  UNL1        0.0000
     28 C          -4.2727   -1.1212    0.9173 C.2     1  UNL1        0.0000
     29 H          -5.7249   -1.1175    2.5085 H       1  UNL1        0.0000
     30 H          -6.0556   -2.2964    1.2034 H       1  UNL1        0.0000
     31 H          -7.4943   -0.0575    0.7791 H       1  UNL1        0.0000
     32 H          -6.8458    1.9049   -1.1436 H       1  UNL1        0.0000
     33 H          -4.9403    2.8112   -2.4384 H       1  UNL1        0.0000
     34 H          -2.6911    1.9017   -2.2398 H       1  UNL1        0.0000
     35 H          -1.9538   -2.1177   -1.3868 H       1  UNL1        0.0000
     36 H           2.5908   -3.5135   -1.1388 H       1  UNL1        0.0000
     37 H           6.9708   -3.0679   -0.3485 H       1  UNL1        0.0000
     38 H           7.2353   -0.4517    0.5105 H       1  UNL1        0.0000
     39 H           6.1019    1.9911    1.1103 H       1  UNL1        0.0000
     40 H           4.0845    4.4055    0.2413 H       1  UNL1        0.0000
     41 H           3.7327    3.6589    2.6114 H       1  UNL1        0.0000
     42 H           1.4830    2.5529    0.6009 H       1  UNL1        0.0000
     43 H          -3.4301   -1.7101    1.2457 H       1  UNL1        0.0000
@<TRIPOS>BOND
     1     1     2    1
     2     2     3    2
     3     3     4   ar
     4     4     5   ar
     5     5     6   ar
     6     6     7   ar
     7     7     8    1
     8     8     9   ar
     9     9    10   ar
    10    10    11   ar
    11    11    12   ar
    12    12    13   ar
    13    13    14   ar
    14    14    15   ar
    15    15    16   ar
    16    16    17   ar
    17    17    18   ar
    18    18    19   ar
    19    19    20    2
    20    20    21    1
    21    21    22    1
    22    22    23    2
    23    23    24   ar
    24    24    25   ar
    25    25    26   ar
    26     7    27   ar
    27    27    28    2
    28    28     1    1
    29    27     3   ar
    30    26     8   ar
    31    25    10   ar
    32    24    13   ar
    33    18    14   ar
    34    23    19   ar
    35     1    29    1
    36     1    30    1
    37     2    31    1
    38     4    32    1
    39     5    33    1
    40     6    34    1
    41     9    35    1
    42    12    36    1
    43    16    37    1
    44    17    38    1
    45    20    39    1
    46    21    40    1
    47    21    41    1
    48    22    42    1
    49    28    43    1
