@<TRIPOS>MOLECULE
*****
 40 45 0 0 0
SMALL
GASTEIGER

@<TRIPOS>ATOM
      1 SI          1.3012   -3.0491    2.1987 Si      1  UNL1        0.0000
      2 C           2.3654   -1.7428    1.4213 C.2     1  UNL1        0.0000
      3 C           1.6385   -0.8726    0.6899 C.ar    1  UNL1        0.0000
      4 C           2.2169    0.1731   -0.1468 C.ar    1  UNL1        0.0000
      5 C           1.3908    0.8872   -0.9346 C.ar    1  UNL1        0.0000
      6 C          -0.0736    0.7117   -0.9331 C.ar    1  UNL1        0.0000
      7 N          -0.7006    1.5403   -1.8044 N.ar    1  UNL1        0.0000
      8 C          -2.0445    1.5186   -1.8022 C.ar    1  UNL1        0.0000
      9 C          -2.7940    0.7457   -0.9193 C.ar    1  UNL1        0.0000
     10 C          -4.1990    0.8332   -0.9403 C.ar    1  UNL1        0.0000
     11 O          -4.9573    1.5844   -1.7935 O.2     1  UNL1        0.0000
     12 C          -6.2574    1.3747   -1.4619 C.ar    1  UNL1        0.0000
     13 C          -6.3516    0.5042   -0.4012 C.ar    1  UNL1        0.0000
     14 C          -5.0216    0.1489   -0.0560 C.ar    1  UNL1        0.0000
     15 C          -4.4197   -0.6569    0.9183 C.ar    1  UNL1        0.0000
     16 C          -3.0137   -0.7612    0.9433 C.ar    1  UNL1        0.0000
     17 C          -2.1584   -0.1064    0.0148 C.ar    1  UNL1        0.0000
     18 C          -0.7316   -0.1849   -0.0507 C.ar    1  UNL1        0.0000
     19 C           0.1650   -1.1041    0.7176 C.ar    1  UNL1        0.0000
     20 C          -0.1733   -2.2326    1.3789 C.2     1  UNL1        0.0000
     21 C           3.6542    0.4765   -0.2326 C.ar    1  UNL1        0.0000
     22 C           4.2185    1.5181    0.5069 C.ar    1  UNL1        0.0000
     23 C           5.5849    1.7694    0.4092 C.ar    1  UNL1        0.0000
     24 C           6.3442    0.9645   -0.4257 C.ar    1  UNL1        0.0000
     25 N           5.8373   -0.0542   -1.1533 N.ar    1  UNL1        0.0000
     26 C           4.5046   -0.2726   -1.0417 C.ar    1  UNL1        0.0000
     27 H           1.2406   -2.9433    3.6761 H       1  UNL1        0.0000
     28 H           1.5583   -4.4043    1.6568 H       1  UNL1        0.0000
     29 H           3.4392   -1.7747    1.5247 H       1  UNL1        0.0000
     30 H           1.7628    1.6610   -1.6007 H       1  UNL1        0.0000
     31 H          -2.5150    2.1792   -2.5259 H       1  UNL1        0.0000
     32 H          -6.9831    1.9087   -2.0597 H       1  UNL1        0.0000
     33 H          -7.2658    0.1709    0.0688 H       1  UNL1        0.0000
     34 H          -5.0194   -1.1842    1.6549 H       1  UNL1        0.0000
     35 H          -2.5988   -1.3445    1.7581 H       1  UNL1        0.0000
     36 H          -1.1300   -2.7127    1.4700 H       1  UNL1        0.0000
     37 H           3.6000    2.1315    1.1570 H       1  UNL1        0.0000
     38 H           6.0462    2.5736    0.9711 H       1  UNL1        0.0000
     39 H           7.4134    1.1229   -0.5342 H       1  UNL1        0.0000
     40 H           4.1267   -1.0971   -1.6407 H       1  UNL1        0.0000
@<TRIPOS>BOND
     1     1     2    1
     2     2     3    2
     3     3     4   ar
     4     4     5   ar
     5     5     6   ar
     6     6     7   ar
     7     7     8   ar
     8     8     9   ar
     9     9    10   ar
    10    10    11   ar
    11    11    12   ar
    12    12    13   ar
    13    13    14   ar
    14    14    15   ar
    15    15    16   ar
    16    16    17   ar
    17    17    18   ar
    18    18    19   ar
    19    19    20    2
    20     4    21    1
    21    21    22   ar
    22    22    23   ar
    23    23    24   ar
    24    24    25   ar
    25    25    26   ar
    26    20     1    1
    27    26    21   ar
    28    19     3   ar
    29    18     6   ar
    30    17     9   ar
    31    14    10   ar
    32     1    27    1
    33     1    28    1
    34     2    29    1
    35     5    30    1
    36     8    31    1
    37    12    32    1
    38    13    33    1
    39    15    34    1
    40    16    35    1
    41    20    36    1
    42    22    37    1
    43    23    38    1
    44    24    39    1
    45    26    40    1
