@<TRIPOS>MOLECULE
*****
 47 54 0 0 0
SMALL
GASTEIGER

@<TRIPOS>ATOM
      1 C          -5.3552    0.7656   -2.4196 C.3     1  UNL1       -0.0148
      2 C          -6.3228    0.6692   -1.2723 C.2     1  UNL1       -0.0725
      3 C          -5.6444    0.4103   -0.1472 C.ar    1  UNL1       -0.0212
      4 C          -6.1211    0.2365    1.2018 C.ar    1  UNL1       -0.0543
      5 C          -5.2102   -0.0118    2.1641 C.ar    1  UNL1       -0.0606
      6 C          -3.7744   -0.1098    1.8741 C.ar    1  UNL1       -0.0534
      7 C          -3.2667    0.0341    0.6249 C.ar    1  UNL1       -0.0097
      8 C          -1.8212   -0.0786    0.4414 C.ar    1  UNL1       -0.0031
      9 C          -0.9010    0.9251    0.8042 C.ar    1  UNL1       -0.0103
     10 C           0.4789    0.7276    0.5731 C.ar    1  UNL1        0.1376
     11 O           1.4560    1.6400    0.8871 O.2     1  UNL1       -0.4527
     12 C           2.6358    1.0776    0.5108 C.ar    1  UNL1        0.1606
     13 C           4.0429    1.6821    0.6404 C.ar    1  UNL1        0.0906
     14 N           4.4737    2.8746    1.1358 N.ar    1  UNL1       -0.3578
     15 C           5.8537    2.9237    1.0170 C.ar    1  UNL1        0.0029
     16 C           6.2998    1.7435    0.4377 C.ar    1  UNL1       -0.0359
     17 C           5.1464    0.9981    0.2181 C.ar    1  UNL1        0.0124
     18 C           4.9045   -0.2821   -0.3355 C.ar    1  UNL1        0.0094
     19 C           5.8480   -1.1428   -0.8192 C.ar    1  UNL1        0.0101
     20 N           5.1474   -2.2536   -1.2477 N.ar    1  UNL1       -0.3659
     21 C           3.7843   -2.0848   -1.0325 C.ar    1  UNL1        0.0101
     22 C           3.6238   -0.8522   -0.4627 C.ar    1  UNL1        0.0115
     23 C           2.4336   -0.1776   -0.0375 C.ar    1  UNL1        0.0398
     24 C           1.0707   -0.3981   -0.0002 C.ar    1  UNL1        0.0393
     25 C           0.1608   -1.4263   -0.3786 C.ar    1  UNL1        0.0318
     26 C           0.3156   -2.6474   -0.9546 C.ar    1  UNL1        0.1001
     27 O          -0.9253   -3.2198   -1.0868 O.2     1  UNL1       -0.4698
     28 C          -1.8431   -2.3361   -0.5859 C.ar    1  UNL1        0.1000
     29 C          -1.2137   -1.1984   -0.1350 C.ar    1  UNL1        0.0284
     30 C          -4.2180    0.3131   -0.4425 C.ar    1  UNL1       -0.0141
     31 C          -4.0288    0.5186   -1.7548 C.2     1  UNL1       -0.0720
     32 H          -5.3862    1.7585   -2.8778 H       1  UNL1        0.0350
     33 H          -5.5640    0.0028   -3.1755 H       1  UNL1        0.0350
     34 H          -7.3906    0.7952   -1.3595 H       1  UNL1        0.0581
     35 H          -7.1802    0.3085    1.4171 H       1  UNL1        0.0624
     36 H          -5.5197   -0.1495    3.1956 H       1  UNL1        0.0618
     37 H          -3.1292   -0.3155    2.7247 H       1  UNL1        0.0624
     38 H          -1.2417    1.8532    1.2538 H       1  UNL1        0.0661
     39 H           3.8821    3.5980    1.5232 H       1  UNL1        0.1654
     40 H           6.3946    3.7968    1.3567 H       1  UNL1        0.0807
     41 H           7.3264    1.4868    0.2169 H       1  UNL1        0.0639
     42 H           6.9244   -1.0907   -0.9047 H       1  UNL1        0.0813
     43 H           5.5669   -3.0768   -1.6599 H       1  UNL1        0.1648
     44 H           3.1170   -2.8766   -1.3183 H       1  UNL1        0.0813
     45 H           1.1238   -3.2557   -1.3181 H       1  UNL1        0.1036
     46 H          -2.8720   -2.6670   -0.6280 H       1  UNL1        0.1036
     47 H          -3.0815    0.5119   -2.2718 H       1  UNL1        0.0581
@<TRIPOS>BOND
     1     1     2    1
     2     2     3    2
     3     3     4   ar
     4     4     5   ar
     5     5     6   ar
     6     6     7   ar
     7     7     8    1
     8     8     9   ar
     9     9    10   ar
    10    10    11   ar
    11    11    12   ar
    12    12    13   ar
    13    13    14   ar
    14    14    15   ar
    15    15    16   ar
    16    16    17   ar
    17    17    18   ar
    18    18    19   ar
    19    19    20   ar
    20    20    21   ar
    21    21    22   ar
    22    22    23   ar
    23    23    24   ar
    24    24    25   ar
    25    25    26   ar
    26    26    27   ar
    27    27    28   ar
    28    28    29   ar
    29     7    30   ar
    30    30    31    2
    31    31     1    1
    32    30     3   ar
    33    29     8   ar
    34    24    10   ar
    35    29    25   ar
    36    23    12   ar
    37    17    13   ar
    38    22    18   ar
    39     1    32    1
    40     1    33    1
    41     2    34    1
    42     4    35    1
    43     5    36    1
    44     6    37    1
    45     9    38    1
    46    14    39    1
    47    15    40    1
    48    16    41    1
    49    19    42    1
    50    20    43    1
    51    21    44    1
    52    26    45    1
    53    28    46    1
    54    31    47    1
