@<TRIPOS>MOLECULE
*****
 47 54 0 0 0
SMALL
GASTEIGER

@<TRIPOS>ATOM
      1 C          -5.9576    1.9931   -1.8981 C.3     1  UNL1       -0.0148
      2 C          -6.9595    1.4177   -0.9361 C.2     1  UNL1       -0.0725
      3 C          -6.3117    0.7268    0.0106 C.ar    1  UNL1       -0.0212
      4 C          -6.8313   -0.0080    1.1357 C.ar    1  UNL1       -0.0543
      5 C          -5.9481   -0.6282    1.9428 C.ar    1  UNL1       -0.0606
      6 C          -4.4998   -0.5666    1.7095 C.ar    1  UNL1       -0.0529
      7 C          -3.9450    0.1013    0.6653 C.ar    1  UNL1       -0.0038
      8 C          -2.5175    0.1252    0.5482 C.ar    1  UNL1        0.0216
      9 C          -1.6824    1.2208    0.6474 C.ar    1  UNL1       -0.0325
     10 C          -0.3155    0.8609    0.4548 C.ar    1  UNL1        0.0282
     11 S           1.1868    1.7598    0.4651 S.2     1  UNL1       -0.0870
     12 C           2.1232    0.3353    0.1321 C.ar    1  UNL1        0.0300
     13 C           1.2443   -0.7310    0.0311 C.ar    1  UNL1        0.0133
     14 C           1.7411   -2.0400   -0.2430 C.ar    1  UNL1        0.0093
     15 C           1.1185   -3.2445   -0.3938 C.ar    1  UNL1        0.0101
     16 N           2.1281   -4.1484   -0.6466 N.ar    1  UNL1       -0.3659
     17 C           3.3518   -3.5063   -0.6502 C.ar    1  UNL1        0.0100
     18 C           3.1357   -2.1670   -0.3969 C.ar    1  UNL1        0.0078
     19 C           4.1266   -1.1628   -0.3164 C.ar    1  UNL1       -0.0070
     20 C           5.5518   -1.3994   -0.4920 C.ar    1  UNL1       -0.0527
     21 C           6.5316   -0.3922   -0.4101 C.ar    1  UNL1       -0.0520
     22 C           5.9501    0.8376   -0.1420 C.ar    1  UNL1        0.0000
     23 C           6.6513    2.0075   -0.0052 C.ar    1  UNL1        0.0094
     24 N           5.7294    2.9931    0.2531 N.ar    1  UNL1       -0.3659
     25 C           4.4563    2.4603    0.2808 C.ar    1  UNL1        0.0100
     26 C           4.5504    1.1090    0.0372 C.ar    1  UNL1        0.0082
     27 C           3.5311    0.1388   -0.0347 C.ar    1  UNL1        0.0062
     28 C          -0.1298   -0.4730    0.2064 C.ar    1  UNL1        0.0353
     29 S          -1.6520   -1.3237    0.2016 S.2     1  UNL1       -0.0870
     30 C          -4.8728    0.7859   -0.2312 C.ar    1  UNL1       -0.0136
     31 C          -4.6476    1.5134   -1.3365 C.2     1  UNL1       -0.0719
     32 H          -6.1167    1.6069   -2.9092 H       1  UNL1        0.0350
     33 H          -6.0044    3.0860   -1.9083 H       1  UNL1        0.0350
     34 H          -8.0277    1.5461   -1.0147 H       1  UNL1        0.0581
     35 H          -7.8995   -0.0532    1.3092 H       1  UNL1        0.0624
     36 H          -6.2893   -1.1966    2.8026 H       1  UNL1        0.0618
     37 H          -3.8828   -1.0867    2.4383 H       1  UNL1        0.0624
     38 H          -2.0278    2.2270    0.8507 H       1  UNL1        0.0640
     39 H           0.0904   -3.5725   -0.3546 H       1  UNL1        0.0813
     40 H           1.9927   -5.1383   -0.8069 H       1  UNL1        0.1648
     41 H           4.2516   -4.0764   -0.8345 H       1  UNL1        0.0813
     42 H           5.8936   -2.4120   -0.6998 H       1  UNL1        0.0624
     43 H           7.5879   -0.5762   -0.5417 H       1  UNL1        0.0624
     44 H           7.7065    2.2363   -0.0650 H       1  UNL1        0.0813
     45 H           5.9487    3.9694    0.4021 H       1  UNL1        0.1648
     46 H           3.6238    3.1190    0.4741 H       1  UNL1        0.0813
     47 H          -3.6846    1.7261   -1.7748 H       1  UNL1        0.0581
@<TRIPOS>BOND
     1     1     2    1
     2     2     3    2
     3     3     4   ar
     4     4     5   ar
     5     5     6   ar
     6     6     7   ar
     7     7     8    1
     8     8     9   ar
     9     9    10   ar
    10    10    11   ar
    11    11    12   ar
    12    12    13   ar
    13    13    14   ar
    14    14    15   ar
    15    15    16   ar
    16    16    17   ar
    17    17    18   ar
    18    18    19   ar
    19    19    20   ar
    20    20    21   ar
    21    21    22   ar
    22    22    23   ar
    23    23    24   ar
    24    24    25   ar
    25    25    26   ar
    26    26    27   ar
    27    13    28   ar
    28    28    29   ar
    29     7    30   ar
    30    30    31    2
    31    31     1    1
    32    30     3   ar
    33    29     8   ar
    34    28    10   ar
    35    27    12   ar
    36    18    14   ar
    37    27    19   ar
    38    26    22   ar
    39     1    32    1
    40     1    33    1
    41     2    34    1
    42     4    35    1
    43     5    36    1
    44     6    37    1
    45     9    38    1
    46    15    39    1
    47    16    40    1
    48    17    41    1
    49    20    42    1
    50    21    43    1
    51    23    44    1
    52    24    45    1
    53    25    46    1
    54    31    47    1
