@<TRIPOS>MOLECULE
*****
 32 36 0 0 0
SMALL
GASTEIGER

@<TRIPOS>ATOM
      1 C          -3.6279    2.2663    1.3798 C.3     1  UNL1        0.0000
      2 C          -4.6662    1.3962    0.7486 C.2     1  UNL1        0.0000
      3 C          -4.0593    0.3958    0.0981 C.ar    1  UNL1        0.0000
      4 C          -4.6679   -0.6699   -0.6473 C.ar    1  UNL1        0.0000
      5 C          -3.8503   -1.5676   -1.2196 C.ar    1  UNL1        0.0000
      6 C          -2.3929   -1.4795   -1.0993 C.ar    1  UNL1        0.0000
      7 C          -1.7177   -0.5095   -0.4158 C.ar    1  UNL1        0.0000
      8 C          -0.2572   -0.5974   -0.4142 C.ar    1  UNL1        0.0000
      9 C           0.5630   -1.5493   -1.0228 C.ar    1  UNL1        0.0000
     10 C           1.9540   -1.3173   -0.8082 C.ar    1  UNL1        0.0000
     11 S           3.4372   -2.1354   -1.2989 S.2     1  UNL1        0.0000
     12 C           4.3513   -0.9689   -0.4731 C.ar    1  UNL1        0.0000
     13 C           5.7717   -0.9027   -0.3692 C.2     1  UNL1        0.0000
     14 C           6.1733    0.1584    0.3642 C.2     1  UNL1        0.0000
     15 SI          4.6890    1.1982    1.0047 Si      1  UNL1        0.0000
     16 C           3.5705   -0.0152    0.1385 C.ar    1  UNL1        0.0000
     17 C           2.1943   -0.2080   -0.0491 C.ar    1  UNL1        0.0000
     18 S           0.7255    0.5728    0.4170 S.2     1  UNL1        0.0000
     19 C          -2.5972    0.4983    0.2285 C.ar    1  UNL1        0.0000
     20 C          -2.3482    1.5893    0.9760 C.2     1  UNL1        0.0000
     21 H          -3.7357    2.2853    2.4683 H       1  UNL1        0.0000
     22 H          -3.6738    3.2861    0.9868 H       1  UNL1        0.0000
     23 H          -5.7300    1.5624    0.8164 H       1  UNL1        0.0000
     24 H          -5.7456   -0.7329   -0.7348 H       1  UNL1        0.0000
     25 H          -4.2559   -2.3943   -1.7951 H       1  UNL1        0.0000
     26 H          -1.8881   -2.2844   -1.6220 H       1  UNL1        0.0000
     27 H           0.2136   -2.3906   -1.6055 H       1  UNL1        0.0000
     28 H           6.4366   -1.6235   -0.8283 H       1  UNL1        0.0000
     29 H           7.1843    0.4482    0.6021 H       1  UNL1        0.0000
     30 H           4.7152    2.5562    0.4071 H       1  UNL1        0.0000
     31 H           4.6286    1.1516    2.4866 H       1  UNL1        0.0000
     32 H          -1.3941    1.9812    1.2806 H       1  UNL1        0.0000
@<TRIPOS>BOND
     1     1     2    1
     2     2     3    2
     3     3     4   ar
     4     4     5   ar
     5     5     6   ar
     6     6     7   ar
     7     7     8    1
     8     8     9   ar
     9     9    10   ar
    10    10    11   ar
    11    11    12   ar
    12    12    13    1
    13    13    14    2
    14    14    15    1
    15    15    16    1
    16    16    17   ar
    17    17    18   ar
    18     7    19   ar
    19    19    20    2
    20    20     1    1
    21    19     3   ar
    22    18     8   ar
    23    17    10   ar
    24    16    12   ar
    25     1    21    1
    26     1    22    1
    27     2    23    1
    28     4    24    1
    29     5    25    1
    30     6    26    1
    31     9    27    1
    32    13    28    1
    33    14    29    1
    34    15    30    1
    35    15    31    1
    36    20    32    1
