@<TRIPOS>MOLECULE
*****
 45 51 0 0 0
SMALL
GASTEIGER

@<TRIPOS>ATOM
      1 C          -5.2882    1.9127    0.9205 C.3     1  UNL1       -0.0148
      2 C          -6.2457    0.8423    0.4736 C.2     1  UNL1       -0.0725
      3 C          -5.5561   -0.1478   -0.1074 C.ar    1  UNL1       -0.0212
      4 C          -6.0205   -1.3790   -0.6958 C.ar    1  UNL1       -0.0543
      5 C          -5.1003   -2.2106   -1.2245 C.ar    1  UNL1       -0.0606
      6 C          -3.6660   -1.8981   -1.2116 C.ar    1  UNL1       -0.0534
      7 C          -3.1690   -0.7569   -0.6732 C.ar    1  UNL1       -0.0105
      8 C          -1.7149   -0.5387   -0.6982 C.ar    1  UNL1       -0.0167
      9 C          -1.0833   -0.0893   -1.8606 C.ar    1  UNL1       -0.0534
     10 C           0.3036    0.1277   -1.8881 C.ar    1  UNL1       -0.0514
     11 C           1.1295   -0.0875   -0.7665 C.ar    1  UNL1        0.0089
     12 C           0.4463   -0.5457    0.4114 C.ar    1  UNL1       -0.0045
     13 C          -0.9512   -0.7669    0.4460 C.ar    1  UNL1       -0.0455
     14 C           1.3399   -0.7329    1.4823 C.ar    1  UNL1        0.0283
     15 C           1.0530   -1.1583    2.7534 C.ar    1  UNL1        0.1000
     16 O           2.2012   -1.2061    3.4891 O.2     1  UNL1       -0.4698
     17 C           3.2254   -0.8071    2.6756 C.ar    1  UNL1        0.1001
     18 C           2.7451   -0.5041    1.4264 C.ar    1  UNL1        0.0316
     19 C           3.4205   -0.0590    0.2855 C.ar    1  UNL1        0.0356
     20 C           4.7907    0.1919    0.1377 C.ar    1  UNL1        0.0579
     21 N           5.8638    0.0951    0.9952 N.ar    1  UNL1       -0.3601
     22 C           7.0223    0.4606    0.3620 C.ar    1  UNL1        0.0028
     23 C           6.7036    0.8019   -0.9302 C.ar    1  UNL1       -0.0352
     24 C           5.2996    0.6368   -1.0844 C.ar    1  UNL1        0.0184
     25 C           4.4169    0.8240   -2.1474 C.ar    1  UNL1        0.0374
     26 N           3.0893    0.5809   -2.0049 N.ar    1  UNL1       -0.2536
     27 C           2.5583    0.1506   -0.8421 C.ar    1  UNL1        0.0813
     28 C          -4.1312    0.1699   -0.0934 C.ar    1  UNL1       -0.0141
     29 C          -3.9545    1.3615    0.4971 C.2     1  UNL1       -0.0720
     30 H          -5.3303    2.0502    2.0050 H       1  UNL1        0.0350
     31 H          -5.4981    2.8621    0.4191 H       1  UNL1        0.0350
     32 H          -7.3155    0.8836    0.6049 H       1  UNL1        0.0581
     33 H          -7.0785   -1.6107   -0.7060 H       1  UNL1        0.0624
     34 H          -5.4004   -3.1491   -1.6804 H       1  UNL1        0.0618
     35 H          -3.0095   -2.6407   -1.6582 H       1  UNL1        0.0624
     36 H          -1.6655    0.1024   -2.7599 H       1  UNL1        0.0624
     37 H           0.7450    0.4789   -2.8214 H       1  UNL1        0.0624
     38 H          -1.4354   -1.1124    1.3553 H       1  UNL1        0.0630
     39 H           0.1545   -1.4516    3.2777 H       1  UNL1        0.1036
     40 H           4.1905   -0.8059    3.1563 H       1  UNL1        0.1036
     41 H           5.8166   -0.2022    1.9576 H       1  UNL1        0.1654
     42 H           7.9694    0.4456    0.8850 H       1  UNL1        0.0807
     43 H           7.4030    1.1351   -1.6862 H       1  UNL1        0.0639
     44 H           4.7372    1.1667   -3.1249 H       1  UNL1        0.0836
     45 H          -3.0109    1.8629    0.6484 H       1  UNL1        0.0581
@<TRIPOS>BOND
     1     1     2    1
     2     2     3    2
     3     3     4   ar
     4     4     5   ar
     5     5     6   ar
     6     6     7   ar
     7     7     8    1
     8     8     9   ar
     9     9    10   ar
    10    10    11   ar
    11    11    12   ar
    12    12    13   ar
    13    12    14   ar
    14    14    15   ar
    15    15    16   ar
    16    16    17   ar
    17    17    18   ar
    18    18    19   ar
    19    19    20   ar
    20    20    21   ar
    21    21    22   ar
    22    22    23   ar
    23    23    24   ar
    24    24    25   ar
    25    25    26   ar
    26    26    27   ar
    27     7    28   ar
    28    28    29    2
    29    29     1    1
    30    28     3   ar
    31    13     8   ar
    32    18    14   ar
    33    27    19   ar
    34    27    11   ar
    35    24    20   ar
    36     1    30    1
    37     1    31    1
    38     2    32    1
    39     4    33    1
    40     5    34    1
    41     6    35    1
    42     9    36    1
    43    10    37    1
    44    13    38    1
    45    15    39    1
    46    17    40    1
    47    21    41    1
    48    22    42    1
    49    23    43    1
    50    25    44    1
    51    29    45    1
