@<TRIPOS>MOLECULE
*****
 40 45 0 0 0
SMALL
GASTEIGER

@<TRIPOS>ATOM
      1 C          -4.8626    2.2635    1.0072 C.3     1  UNL1       -0.0148
      2 C          -5.8596    1.1949    0.6512 C.2     1  UNL1       -0.0725
      3 C          -5.2069    0.1298    0.1687 C.ar    1  UNL1       -0.0212
      4 C          -5.7163   -1.1332   -0.3037 C.ar    1  UNL1       -0.0543
      5 C          -4.8268   -2.0463   -0.7429 C.ar    1  UNL1       -0.0606
      6 C          -3.3815   -1.7886   -0.7500 C.ar    1  UNL1       -0.0534
      7 C          -2.8433   -0.6209   -0.3191 C.ar    1  UNL1       -0.0104
      8 C          -1.3821   -0.4578   -0.3620 C.ar    1  UNL1       -0.0153
      9 C          -0.7486   -0.0934   -1.5520 C.ar    1  UNL1       -0.0533
     10 C           0.6346    0.0666   -1.5793 C.ar    1  UNL1       -0.0509
     11 C           1.3892   -0.1381   -0.4021 C.ar    1  UNL1        0.0147
     12 C           2.8044    0.0077   -0.3546 C.ar    1  UNL1        0.0308
     13 S           3.9026    0.4465   -1.6518 S.2     1  UNL1       -0.0878
     14 C           5.2164    0.3440   -0.6341 C.ar    1  UNL1        0.0166
     15 C           6.6003    0.5409   -0.8106 C.2     1  UNL1       -0.0513
     16 C           7.1734    0.3109    0.3929 C.2     1  UNL1       -0.0786
     17 C           6.1378   -0.0648    1.4608 C.3     1  UNL1       -0.0075
     18 C           4.8920   -0.0049    0.6481 C.ar    1  UNL1       -0.0203
     19 C           3.5045   -0.2078    0.8477 C.ar    1  UNL1        0.0119
     20 C           2.7740   -0.5662    1.9847 C.ar    1  UNL1        0.0368
     21 N           1.4301   -0.7061    1.9467 N.ar    1  UNL1       -0.2543
     22 C           0.7610   -0.5023    0.8044 C.ar    1  UNL1        0.0726
     23 C          -0.6180   -0.6541    0.7985 C.ar    1  UNL1       -0.0280
     24 C          -3.7708    0.3925    0.1640 C.ar    1  UNL1       -0.0141
     25 C          -3.5498    1.6250    0.6453 C.2     1  UNL1       -0.0720
     26 H          -4.9037    2.4998    2.0745 H       1  UNL1        0.0350
     27 H          -5.0329    3.1711    0.4207 H       1  UNL1        0.0350
     28 H          -6.9273    1.2884    0.7724 H       1  UNL1        0.0581
     29 H          -6.7822   -1.3251   -0.2977 H       1  UNL1        0.0624
     30 H          -5.1612   -3.0129   -1.1070 H       1  UNL1        0.0618
     31 H          -2.7529   -2.5948   -1.1194 H       1  UNL1        0.0624
     32 H          -1.3292    0.0707   -2.4571 H       1  UNL1        0.0624
     33 H           1.1120    0.3507   -2.5130 H       1  UNL1        0.0625
     34 H           7.0921    0.8201   -1.7305 H       1  UNL1        0.0626
     35 H           8.2323    0.3789    0.5962 H       1  UNL1        0.0576
     36 H           6.1327    0.6675    2.2728 H       1  UNL1        0.0356
     37 H           6.3257   -1.0697    1.8488 H       1  UNL1        0.0356
     38 H           3.2411   -0.7488    2.9466 H       1  UNL1        0.0836
     39 H          -1.1130   -0.9332    1.7268 H       1  UNL1        0.0645
     40 H          -2.5877    2.0995    0.7629 H       1  UNL1        0.0581
@<TRIPOS>BOND
     1     1     2    1
     2     2     3    2
     3     3     4   ar
     4     4     5   ar
     5     5     6   ar
     6     6     7   ar
     7     7     8    1
     8     8     9   ar
     9     9    10   ar
    10    10    11   ar
    11    11    12   ar
    12    12    13   ar
    13    13    14   ar
    14    14    15    1
    15    15    16    2
    16    16    17    1
    17    17    18    1
    18    18    19   ar
    19    19    20   ar
    20    20    21   ar
    21    21    22   ar
    22    22    23   ar
    23     7    24   ar
    24    24    25    2
    25    25     1    1
    26    24     3   ar
    27    23     8   ar
    28    22    11   ar
    29    19    12   ar
    30    18    14   ar
    31     1    26    1
    32     1    27    1
    33     2    28    1
    34     4    29    1
    35     5    30    1
    36     6    31    1
    37     9    32    1
    38    10    33    1
    39    15    34    1
    40    16    35    1
    41    17    36    1
    42    17    37    1
    43    20    38    1
    44    23    39    1
    45    25    40    1
