@<TRIPOS>MOLECULE
*****
 44 50 0 0 0
SMALL
GASTEIGER

@<TRIPOS>ATOM
      1 C           5.4824    2.3333   -1.2000 C.3     1  UNL1       -0.0148
      2 C           6.4284    1.5861   -0.3011 C.2     1  UNL1       -0.0725
      3 C           5.7725    0.5751    0.2826 C.ar    1  UNL1       -0.0212
      4 C           6.2409   -0.4108    1.2236 C.ar    1  UNL1       -0.0543
      5 C           5.3579   -1.3283    1.6661 C.ar    1  UNL1       -0.0606
      6 C           3.9604   -1.3478    1.2169 C.ar    1  UNL1       -0.0534
      7 C           3.4612   -0.4480    0.3331 C.ar    1  UNL1       -0.0089
      8 C           2.0509   -0.5564   -0.0683 C.ar    1  UNL1        0.0043
      9 C           1.7109   -1.0167   -1.3459 C.ar    1  UNL1        0.0362
     10 N           0.4538   -1.1545   -1.8411 N.ar    1  UNL1       -0.2506
     11 C          -0.5233   -0.7941   -0.9679 C.ar    1  UNL1        0.1166
     12 C          -0.2595   -0.3273    0.3122 C.ar    1  UNL1        0.1550
     13 C           1.0283   -0.1887    0.8125 C.ar    1  UNL1       -0.0080
     14 O          -1.4175   -0.0412    0.9625 O.2     1  UNL1       -0.4526
     15 C          -2.4428   -0.3240    0.1013 C.ar    1  UNL1        0.1461
     16 C          -1.9353   -0.7946   -1.1099 C.ar    1  UNL1        0.0468
     17 C          -2.8348   -1.1426   -2.1338 C.ar    1  UNL1       -0.0483
     18 C          -4.2158   -1.0092   -1.9136 C.ar    1  UNL1       -0.0532
     19 C          -4.7336   -0.5372   -0.6994 C.ar    1  UNL1       -0.0137
     20 C          -6.1547   -0.4181   -0.5215 C.ar    1  UNL1       -0.0533
     21 C          -6.7896    0.0443    0.6551 C.ar    1  UNL1       -0.0529
     22 C          -5.8723    0.3807    1.6483 C.ar    1  UNL1       -0.0102
     23 C          -6.2662    0.8532    2.8756 C.ar    1  UNL1       -0.0166
     24 S          -4.9116    1.1777    3.8796 S.2     1  UNL1       -0.1039
     25 C          -3.7992    0.6829    2.6635 C.ar    1  UNL1       -0.0159
     26 C          -4.4386    0.2777    1.5146 C.ar    1  UNL1        0.0004
     27 C          -3.8118   -0.1829    0.3426 C.ar    1  UNL1        0.0333
     28 C           4.3833    0.5633   -0.1666 C.ar    1  UNL1       -0.0140
     29 C           4.1935    1.5767   -1.0251 C.2     1  UNL1       -0.0720
     30 H           5.3740    3.3734   -0.8791 H       1  UNL1        0.0350
     31 H           5.8193    2.3004   -2.2403 H       1  UNL1        0.0350
     32 H           7.4668    1.8410   -0.1576 H       1  UNL1        0.0581
     33 H           7.2719   -0.3979    1.5556 H       1  UNL1        0.0624
     34 H           5.6632   -2.0906    2.3765 H       1  UNL1        0.0618
     35 H           3.3392   -2.1384    1.6311 H       1  UNL1        0.0624
     36 H           2.4934   -1.3052   -2.0468 H       1  UNL1        0.0836
     37 H           1.2145    0.1846    1.8113 H       1  UNL1        0.0661
     38 H          -2.4608   -1.5114   -3.0855 H       1  UNL1        0.0625
     39 H          -4.8897   -1.2862   -2.7235 H       1  UNL1        0.0624
     40 H          -6.8060   -0.7031   -1.3505 H       1  UNL1        0.0624
     41 H          -7.8653    0.1182    0.7464 H       1  UNL1        0.0624
     42 H          -7.2664    1.0289    3.2471 H       1  UNL1        0.0699
     43 H          -2.7417    0.7252    2.8807 H       1  UNL1        0.0700
     44 H           3.2697    1.8324   -1.5211 H       1  UNL1        0.0581
@<TRIPOS>BOND
     1     1     2    1
     2     2     3    2
     3     3     4   ar
     4     4     5   ar
     5     5     6   ar
     6     6     7   ar
     7     7     8    1
     8     8     9   ar
     9     9    10   ar
    10    10    11   ar
    11    11    12   ar
    12    12    13   ar
    13    12    14   ar
    14    14    15   ar
    15    15    16   ar
    16    16    17   ar
    17    17    18   ar
    18    18    19   ar
    19    19    20   ar
    20    20    21   ar
    21    21    22   ar
    22    22    23   ar
    23    23    24   ar
    24    24    25   ar
    25    25    26   ar
    26    26    27   ar
    27     7    28   ar
    28    28    29    2
    29    29     1    1
    30    28     3   ar
    31    13     8   ar
    32    27    15   ar
    33    16    11   ar
    34    27    19   ar
    35    26    22   ar
    36     1    30    1
    37     1    31    1
    38     2    32    1
    39     4    33    1
    40     5    34    1
    41     6    35    1
    42     9    36    1
    43    13    37    1
    44    17    38    1
    45    18    39    1
    46    20    40    1
    47    21    41    1
    48    23    42    1
    49    25    43    1
    50    29    44    1
