@<TRIPOS>MOLECULE
*****
 47 53 0 0 0
SMALL
GASTEIGER

@<TRIPOS>ATOM
      1 C          -6.1876    2.4851    0.5978 C.3     1  UNL1       -0.0148
      2 C          -7.2048    1.4714    0.1517 C.2     1  UNL1       -0.0725
      3 C          -6.5749    0.3431   -0.1993 C.ar    1  UNL1       -0.0212
      4 C          -7.1116   -0.9044   -0.6815 C.ar    1  UNL1       -0.0543
      5 C          -6.2435   -1.8977   -0.9592 C.ar    1  UNL1       -0.0606
      6 C          -4.7941   -1.7389   -0.7891 C.ar    1  UNL1       -0.0534
      7 C          -4.2295   -0.5901   -0.3404 C.ar    1  UNL1       -0.0089
      8 C          -2.7660   -0.5210   -0.2164 C.ar    1  UNL1        0.0043
      9 C          -2.0129    0.2347   -1.1231 C.ar    1  UNL1        0.0362
     10 N          -0.6635    0.3881   -1.1147 N.ar    1  UNL1       -0.2506
     11 C          -0.0417   -0.2774   -0.1059 C.ar    1  UNL1        0.1166
     12 C          -0.7248   -1.0436    0.8308 C.ar    1  UNL1        0.1550
     13 C          -2.1049   -1.1956    0.8156 C.ar    1  UNL1       -0.0080
     14 O           0.1444   -1.5922    1.7229 O.2     1  UNL1       -0.4532
     15 C           1.3908   -1.1763    1.3562 C.ar    1  UNL1        0.1384
     16 C           2.5740   -1.5093    2.0041 C.ar    1  UNL1       -0.0109
     17 C           3.7710   -0.9856    1.4819 C.ar    1  UNL1       -0.0138
     18 C           4.9695   -1.3095    2.1199 C.ar    1  UNL1       -0.0533
     19 C           6.1861   -0.8225    1.6511 C.ar    1  UNL1       -0.0534
     20 C           6.2413    0.0049    0.5277 C.ar    1  UNL1       -0.0173
     21 C           7.4869    0.4789    0.0813 C.ar    1  UNL1       -0.0540
     22 C           7.5837    1.3055   -1.0345 C.ar    1  UNL1       -0.0612
     23 C           6.4333    1.6678   -1.7173 C.ar    1  UNL1       -0.0611
     24 C           5.1884    1.2024   -1.2825 C.ar    1  UNL1       -0.0534
     25 C           5.0467    0.3587   -0.1507 C.ar    1  UNL1       -0.0102
     26 C           3.7865   -0.1444    0.3332 C.ar    1  UNL1       -0.0093
     27 C           2.5372    0.1539   -0.2778 C.ar    1  UNL1       -0.0406
     28 C           1.3322   -0.3639    0.2350 C.ar    1  UNL1        0.0468
     29 C          -5.1346    0.5073   -0.0252 C.ar    1  UNL1       -0.0140
     30 C          -4.8889    1.7420    0.4388 C.2     1  UNL1       -0.0720
     31 H          -6.3504    2.7729    1.6406 H       1  UNL1        0.0350
     32 H          -6.2123    3.3740   -0.0394 H       1  UNL1        0.0350
     33 H          -8.2698    1.6418    0.1288 H       1  UNL1        0.0581
     34 H          -8.1808   -1.0228   -0.8081 H       1  UNL1        0.0624
     35 H          -6.5999   -2.8563   -1.3241 H       1  UNL1        0.0618
     36 H          -4.1873   -2.6018   -1.0532 H       1  UNL1        0.0624
     37 H          -2.5106    0.7690   -1.9316 H       1  UNL1        0.0836
     38 H          -2.6206   -1.7904    1.5585 H       1  UNL1        0.0661
     39 H           2.5545   -2.1504    2.8785 H       1  UNL1        0.0660
     40 H           4.9741   -1.9513    2.9991 H       1  UNL1        0.0624
     41 H           7.0963   -1.1000    2.1789 H       1  UNL1        0.0624
     42 H           8.4004    0.2046    0.6052 H       1  UNL1        0.0624
     43 H           8.5541    1.6635   -1.3668 H       1  UNL1        0.0618
     44 H           6.4963    2.3127   -2.5899 H       1  UNL1        0.0618
     45 H           4.3207    1.5177   -1.8552 H       1  UNL1        0.0624
     46 H           2.4676    0.7873   -1.1557 H       1  UNL1        0.0631
     47 H          -3.9210    2.1579    0.6736 H       1  UNL1        0.0581
@<TRIPOS>BOND
     1     1     2    1
     2     2     3    2
     3     3     4   ar
     4     4     5   ar
     5     5     6   ar
     6     6     7   ar
     7     7     8    1
     8     8     9   ar
     9     9    10   ar
    10    10    11   ar
    11    11    12   ar
    12    12    13   ar
    13    12    14   ar
    14    14    15   ar
    15    15    16   ar
    16    16    17   ar
    17    17    18   ar
    18    18    19   ar
    19    19    20   ar
    20    20    21   ar
    21    21    22   ar
    22    22    23   ar
    23    23    24   ar
    24    24    25   ar
    25    25    26   ar
    26    26    27   ar
    27    27    28   ar
    28     7    29   ar
    29    29    30    2
    30    30     1    1
    31    29     3   ar
    32    13     8   ar
    33    28    15   ar
    34    28    11   ar
    35    26    17   ar
    36    25    20   ar
    37     1    31    1
    38     1    32    1
    39     2    33    1
    40     4    34    1
    41     5    35    1
    42     6    36    1
    43     9    37    1
    44    13    38    1
    45    16    39    1
    46    18    40    1
    47    19    41    1
    48    21    42    1
    49    22    43    1
    50    23    44    1
    51    24    45    1
    52    27    46    1
    53    30    47    1
