@<TRIPOS>MOLECULE
*****
 48 55 0 0 0
SMALL
GASTEIGER

@<TRIPOS>ATOM
      1 C           5.8180    1.1950   -0.0630 C.3     1  UNL1       -0.0089
      2 C           7.0749    0.4247    0.2249 C.2     1  UNL1       -0.0797
      3 C           6.7650   -0.8318    0.5705 C.2     1  UNL1       -0.0651
      4 C           5.3344   -0.9967    0.5431 C.2     1  UNL1       -0.0583
      5 C           4.7471    0.1569    0.1799 C.2     1  UNL1       -0.0401
      6 C           3.3400    0.4135    0.0324 C.2     1  UNL1       -0.0390
      7 C           2.7850    1.5827   -0.3351 C.2     1  UNL1       -0.0499
      8 C           1.3587    1.3751   -0.3441 C.ar    1  UNL1       -0.0124
      9 C           0.9999    0.0699    0.0168 C.ar    1  UNL1       -0.0269
     10 C           2.2897   -0.6656    0.2796 C.3     1  UNL1       -0.0010
     11 C          -0.3670   -0.3953    0.0828 C.ar    1  UNL1       -0.0035
     12 C          -0.7996   -1.7248    0.3448 C.ar    1  UNL1        0.0080
     13 C          -0.0034   -2.8286    0.5579 C.ar    1  UNL1        0.0100
     14 N          -0.8219   -3.9197    0.7367 N.ar    1  UNL1       -0.3659
     15 C          -2.1364   -3.5365    0.6490 C.ar    1  UNL1        0.0100
     16 C          -2.1599   -2.1810    0.4059 C.ar    1  UNL1        0.0077
     17 C          -3.3233   -1.3895    0.2947 C.ar    1  UNL1       -0.0074
     18 C          -4.6803   -1.9242    0.4177 C.ar    1  UNL1       -0.0527
     19 C          -5.8403   -1.1344    0.4417 C.ar    1  UNL1       -0.0504
     20 C          -5.4840    0.1997    0.4071 C.ar    1  UNL1        0.0205
     21 C          -6.3499    1.2467    0.5748 C.ar    1  UNL1        0.0994
     22 O          -5.6422    2.4102    0.6327 O.2     1  UNL1       -0.4698
     23 C          -4.3208    2.0907    0.4923 C.ar    1  UNL1        0.1000
     24 C          -4.1658    0.7439    0.2593 C.ar    1  UNL1        0.0282
     25 C          -2.9512    0.0059    0.0973 C.ar    1  UNL1        0.0018
     26 C          -1.5356    0.4656   -0.1445 C.ar    1  UNL1       -0.0003
     27 C          -1.0853    1.7421   -0.6537 C.ar    1  UNL1       -0.0020
     28 C          -1.8796    2.6384   -1.3349 C.ar    1  UNL1       -0.0160
     29 S          -1.0399    4.0672   -1.7902 S.2     1  UNL1       -0.1038
     30 C           0.4564    3.4375   -1.2454 C.ar    1  UNL1       -0.0160
     31 C           0.3002    2.1762   -0.7247 C.ar    1  UNL1       -0.0028
     32 H           5.7208    2.0438    0.6215 H       1  UNL1        0.0356
     33 H           5.8112    1.5481   -1.0992 H       1  UNL1        0.0356
     34 H           8.0717    0.8333    0.1596 H       1  UNL1        0.0575
     35 H           7.4619   -1.6133    0.8324 H       1  UNL1        0.0615
     36 H           4.8447   -1.9272    0.7861 H       1  UNL1        0.0620
     37 H           3.2784    2.5083   -0.5782 H       1  UNL1        0.0627
     38 H           2.4227   -1.4853   -0.4333 H       1  UNL1        0.0362
     39 H           2.3312   -1.0189    1.3147 H       1  UNL1        0.0362
     40 H           1.0645   -2.9731    0.5979 H       1  UNL1        0.0813
     41 H          -0.5014   -4.8637    0.9114 H       1  UNL1        0.1648
     42 H          -2.9196   -4.2701    0.7785 H       1  UNL1        0.0813
     43 H          -4.8111   -3.0004    0.5232 H       1  UNL1        0.0624
     44 H          -6.8373   -1.5316    0.5618 H       1  UNL1        0.0625
     45 H          -7.4173    1.3415    0.7143 H       1  UNL1        0.1035
     46 H          -3.6491    2.9285    0.6094 H       1  UNL1        0.1036
     47 H          -2.9167    2.5554   -1.6220 H       1  UNL1        0.0700
     48 H           1.3624    4.0105   -1.3849 H       1  UNL1        0.0700
@<TRIPOS>BOND
     1     1     2    1
     2     2     3    2
     3     3     4    1
     4     4     5    2
     5     5     6    1
     6     6     7    2
     7     7     8    1
     8     8     9   ar
     9     9    10    1
    10     9    11   ar
    11    11    12   ar
    12    12    13   ar
    13    13    14   ar
    14    14    15   ar
    15    15    16   ar
    16    16    17   ar
    17    17    18   ar
    18    18    19   ar
    19    19    20   ar
    20    20    21   ar
    21    21    22   ar
    22    22    23   ar
    23    23    24   ar
    24    24    25   ar
    25    25    26   ar
    26    26    27   ar
    27    27    28   ar
    28    28    29   ar
    29    29    30   ar
    30    30    31   ar
    31     5     1    1
    32    10     6    1
    33    26    11   ar
    34    31    27   ar
    35    31     8   ar
    36    16    12   ar
    37    25    17   ar
    38    24    20   ar
    39     1    32    1
    40     1    33    1
    41     2    34    1
    42     3    35    1
    43     4    36    1
    44     7    37    1
    45    10    38    1
    46    10    39    1
    47    13    40    1
    48    14    41    1
    49    15    42    1
    50    18    43    1
    51    19    44    1
    52    21    45    1
    53    23    46    1
    54    28    47    1
    55    30    48    1
