@<TRIPOS>MOLECULE
*****
 36 41 0 0 0
SMALL
GASTEIGER

@<TRIPOS>ATOM
      1 C          -4.7433   -0.5513   -0.0220 C.3     1  UNL1       -0.0089
      2 C          -5.8217    0.2334   -0.7127 C.2     1  UNL1       -0.0797
      3 C          -5.2750    1.2470   -1.3967 C.2     1  UNL1       -0.0651
      4 C          -3.8449    1.2235   -1.2260 C.2     1  UNL1       -0.0583
      5 C          -3.4950    0.1946   -0.4346 C.2     1  UNL1       -0.0401
      6 C          -2.1703   -0.1785   -0.0191 C.2     1  UNL1       -0.0389
      7 C          -1.8577   -1.2184    0.7764 C.2     1  UNL1       -0.0484
      8 C          -0.4204   -1.2173    0.9299 C.ar    1  UNL1        0.0075
      9 C           0.1777   -0.1615    0.2204 C.ar    1  UNL1       -0.0259
     10 C          -0.9358    0.6014   -0.4581 C.3     1  UNL1       -0.0009
     11 C           1.5682    0.0835    0.1901 C.ar    1  UNL1       -0.0081
     12 C           2.1029    1.1593   -0.5408 C.ar    1  UNL1       -0.0107
     13 C           3.4874    1.3340   -0.5203 C.ar    1  UNL1        0.1354
     14 O           4.1622    2.3219   -1.1718 O.2     1  UNL1       -0.4629
     15 C           5.4817    2.1455   -0.9009 C.ar    1  UNL1        0.0931
     16 C           5.6661    1.0552   -0.0822 C.ar    1  UNL1       -0.0161
     17 C           4.3751    0.5209    0.1708 C.ar    1  UNL1        0.0208
     18 C           3.8638   -0.5588    0.9071 C.ar    1  UNL1       -0.0411
     19 C           2.4630   -0.7733    0.9140 C.ar    1  UNL1        0.0114
     20 C           1.8856   -1.8724    1.6574 C.ar    1  UNL1        0.1082
     21 N           2.5437   -2.7849    2.3966 N.ar    1  UNL1       -0.1901
     22 S           1.3978   -3.8093    3.0244 S.2     1  UNL1        0.1165
     23 N           0.0078   -3.1548    2.3956 N.ar    1  UNL1       -0.1902
     24 C           0.3888   -2.0974    1.6616 C.ar    1  UNL1        0.1079
     25 H          -4.8864   -0.5308    1.0631 H       1  UNL1        0.0356
     26 H          -4.7318   -1.5866   -0.3778 H       1  UNL1        0.0356
     27 H          -6.8752    0.0048   -0.6582 H       1  UNL1        0.0575
     28 H          -5.8044    1.9779   -1.9890 H       1  UNL1        0.0615
     29 H          -3.1869    1.9458   -1.6847 H       1  UNL1        0.0620
     30 H          -2.5143   -1.9404    1.2350 H       1  UNL1        0.0627
     31 H          -0.9724    1.6338   -0.0954 H       1  UNL1        0.0362
     32 H          -0.8167    0.5708   -1.5460 H       1  UNL1        0.0362
     33 H           1.4850    1.8447   -1.1094 H       1  UNL1        0.0661
     34 H           6.1508    2.8631   -1.3550 H       1  UNL1        0.1029
     35 H           6.6134    0.6896    0.2874 H       1  UNL1        0.0655
     36 H           4.5316   -1.2147    1.4593 H       1  UNL1        0.0631
@<TRIPOS>BOND
     1     1     2    1
     2     2     3    2
     3     3     4    1
     4     4     5    2
     5     5     6    1
     6     6     7    2
     7     7     8    1
     8     8     9   ar
     9     9    10    1
    10     9    11   ar
    11    11    12   ar
    12    12    13   ar
    13    13    14   ar
    14    14    15   ar
    15    15    16   ar
    16    16    17   ar
    17    17    18   ar
    18    18    19   ar
    19    19    20   ar
    20    20    21   ar
    21    21    22   ar
    22    22    23   ar
    23    23    24   ar
    24     5     1    1
    25    10     6    1
    26    19    11   ar
    27    24    20   ar
    28    24     8   ar
    29    17    13   ar
    30     1    25    1
    31     1    26    1
    32     2    27    1
    33     3    28    1
    34     4    29    1
    35     7    30    1
    36    10    31    1
    37    10    32    1
    38    12    33    1
    39    15    34    1
    40    16    35    1
    41    18    36    1
