@<TRIPOS>MOLECULE
*****
 37 42 0 0 0
SMALL
GASTEIGER

@<TRIPOS>ATOM
      1 C          -4.9036    1.2581    0.7696 C.3     1  UNL1        0.0000
      2 C          -6.2547    0.6084    0.7111 C.2     1  UNL1        0.0000
      3 C          -6.1216   -0.6741    0.3517 C.2     1  UNL1        0.0000
      4 C          -4.7269   -0.9728    0.1491 C.2     1  UNL1        0.0000
      5 C          -3.9785    0.1218    0.3808 C.2     1  UNL1        0.0000
      6 C          -2.5480    0.2848    0.3003 C.2     1  UNL1        0.0000
      7 C          -1.8587    1.4185    0.5486 C.2     1  UNL1        0.0000
      8 C          -0.3985    1.3061    0.3905 C.ar    1  UNL1        0.0000
      9 C           0.4885    2.3472    0.5965 C.ar    1  UNL1        0.0000
     10 N           1.8230    2.2241    0.4465 N.ar    1  UNL1        0.0000
     11 C           2.3035    1.0042    0.0723 C.ar    1  UNL1        0.0000
     12 C           3.7119    0.9527   -0.0647 C.ar    1  UNL1        0.0000
     13 O           4.6176    1.9713    0.1336 O.2     1  UNL1        0.0000
     14 C           5.8621    1.4639   -0.1133 C.ar    1  UNL1        0.0000
     15 C           5.8008    0.1321   -0.4706 C.ar    1  UNL1        0.0000
     16 C           4.4387   -0.1557   -0.4300 C.ar    1  UNL1        0.0000
     17 C           3.7168   -1.3449   -0.6908 C.ar    1  UNL1        0.0000
     18 C           4.2878   -2.5257   -1.0622 C.ar    1  UNL1        0.0000
     19 S           3.0435   -3.6897   -1.2705 S.2     1  UNL1        0.0000
     20 C           1.8071   -2.5515   -0.8526 C.ar    1  UNL1        0.0000
     21 C           2.2987   -1.2974   -0.5540 C.ar    1  UNL1        0.0000
     22 C           1.4998   -0.1558   -0.1733 C.ar    1  UNL1        0.0000
     23 C           0.1026    0.0379    0.0015 C.ar    1  UNL1        0.0000
     24 SI         -1.3649   -1.1114   -0.1832 Si      1  UNL1        0.0000
     25 H          -4.6948    1.6198    1.7817 H       1  UNL1        0.0000
     26 H          -4.8451    2.0875    0.0572 H       1  UNL1        0.0000
     27 H          -7.1858    1.1094    0.9281 H       1  UNL1        0.0000
     28 H          -6.9205   -1.3894    0.2273 H       1  UNL1        0.0000
     29 H          -4.3904   -1.9548   -0.1465 H       1  UNL1        0.0000
     30 H          -2.3011    2.3615    0.8439 H       1  UNL1        0.0000
     31 H           0.1504    3.3349    0.8950 H       1  UNL1        0.0000
     32 H           6.6739    2.1681    0.0077 H       1  UNL1        0.0000
     33 H           6.6372   -0.5047   -0.7170 H       1  UNL1        0.0000
     34 H           5.3258   -2.7819   -1.2226 H       1  UNL1        0.0000
     35 H           0.7964   -2.9225   -0.8654 H       1  UNL1        0.0000
     36 H          -1.3418   -2.2161    0.8093 H       1  UNL1        0.0000
     37 H          -1.5510   -1.5640   -1.5856 H       1  UNL1        0.0000
@<TRIPOS>BOND
     1     1     2    1
     2     2     3    2
     3     3     4    1
     4     4     5    2
     5     5     6    1
     6     6     7    2
     7     7     8    1
     8     8     9   ar
     9     9    10   ar
    10    10    11   ar
    11    11    12   ar
    12    12    13   ar
    13    13    14   ar
    14    14    15   ar
    15    15    16   ar
    16    16    17   ar
    17    17    18   ar
    18    18    19   ar
    19    19    20   ar
    20    20    21   ar
    21    21    22   ar
    22    22    23   ar
    23    23    24    1
    24     5     1    1
    25    24     6    1
    26    23     8   ar
    27    22    11   ar
    28    16    12   ar
    29    21    17   ar
    30     1    25    1
    31     1    26    1
    32     2    27    1
    33     3    28    1
    34     4    29    1
    35     7    30    1
    36     9    31    1
    37    14    32    1
    38    15    33    1
    39    18    34    1
    40    20    35    1
    41    24    36    1
    42    24    37    1
