@<TRIPOS>MOLECULE
*****
 41 46 0 0 0
SMALL
GASTEIGER

@<TRIPOS>ATOM
      1 SI         -0.9534    3.4130    1.1424 Si      1  UNL1        0.0000
      2 C          -2.1024    2.0736    0.5739 C.2     1  UNL1        0.0000
      3 C          -1.4392    0.9373    0.2745 C.ar    1  UNL1        0.0000
      4 C          -2.0919   -0.3240   -0.0588 C.ar    1  UNL1        0.0000
      5 C          -1.3237   -1.4229   -0.1825 C.ar    1  UNL1        0.0000
      6 C           0.1462   -1.3910   -0.0743 C.ar    1  UNL1        0.0000
      7 N           0.7126   -2.6092   -0.2261 N.ar    1  UNL1        0.0000
      8 C           2.0563   -2.6541   -0.2439 C.ar    1  UNL1        0.0000
      9 C           2.8888   -1.5422   -0.1851 C.ar    1  UNL1        0.0000
     10 C           4.2871   -1.7237   -0.2823 C.ar    1  UNL1        0.0000
     11 C           5.1261   -0.6020   -0.2950 C.ar    1  UNL1        0.0000
     12 C           6.5230   -0.3707   -0.3888 C.ar    1  UNL1        0.0000
     13 C           6.6899    0.9953   -0.3770 C.ar    1  UNL1        0.0000
     14 O           5.4880    1.6223   -0.2835 O.2     1  UNL1        0.0000
     15 C           4.5379    0.6483   -0.2266 C.ar    1  UNL1        0.0000
     16 C           3.1633    0.8623   -0.1216 C.ar    1  UNL1        0.0000
     17 C           2.2928   -0.2571   -0.0533 C.ar    1  UNL1        0.0000
     18 C           0.8721   -0.1881    0.0949 C.ar    1  UNL1        0.0000
     19 C           0.0443    1.0205    0.4049 C.ar    1  UNL1        0.0000
     20 C           0.4562    2.1985    0.9232 C.2     1  UNL1        0.0000
     21 C          -3.5463   -0.4955   -0.2321 C.ar    1  UNL1        0.0000
     22 C          -4.3382   -0.9594    0.8261 C.ar    1  UNL1        0.0000
     23 C          -5.7158   -1.1114    0.6593 C.ar    1  UNL1        0.0000
     24 C          -6.3093   -0.7996   -0.5636 C.ar    1  UNL1        0.0000
     25 C          -5.5276   -0.3348   -1.6208 C.ar    1  UNL1        0.0000
     26 C          -4.1497   -0.1819   -1.4564 C.ar    1  UNL1        0.0000
     27 H          -1.1550    3.7830    2.5638 H       1  UNL1        0.0000
     28 H          -0.8669    4.5447    0.1885 H       1  UNL1        0.0000
     29 H          -3.1714    2.2213    0.5756 H       1  UNL1        0.0000
     30 H          -1.7531   -2.3949   -0.4081 H       1  UNL1        0.0000
     31 H           2.4615   -3.6586   -0.3446 H       1  UNL1        0.0000
     32 H           4.7189   -2.7175   -0.3666 H       1  UNL1        0.0000
     33 H           7.3104   -1.1069   -0.4638 H       1  UNL1        0.0000
     34 H           7.5519    1.6458   -0.4292 H       1  UNL1        0.0000
     35 H           2.8068    1.8810   -0.1421 H       1  UNL1        0.0000
     36 H           1.4385    2.5030    1.2355 H       1  UNL1        0.0000
     37 H          -3.8840   -1.2021    1.7840 H       1  UNL1        0.0000
     38 H          -6.3251   -1.4733    1.4833 H       1  UNL1        0.0000
     39 H          -7.3819   -0.9193   -0.6929 H       1  UNL1        0.0000
     40 H          -5.9901   -0.0919   -2.5738 H       1  UNL1        0.0000
     41 H          -3.5476    0.1821   -2.2857 H       1  UNL1        0.0000
@<TRIPOS>BOND
     1     1     2    1
     2     2     3    2
     3     3     4   ar
     4     4     5   ar
     5     5     6   ar
     6     6     7   ar
     7     7     8   ar
     8     8     9   ar
     9     9    10   ar
    10    10    11   ar
    11    11    12   ar
    12    12    13   ar
    13    13    14   ar
    14    14    15   ar
    15    15    16   ar
    16    16    17   ar
    17    17    18   ar
    18    18    19   ar
    19    19    20    2
    20     4    21    1
    21    21    22   ar
    22    22    23   ar
    23    23    24   ar
    24    24    25   ar
    25    25    26   ar
    26    20     1    1
    27    26    21   ar
    28    19     3   ar
    29    18     6   ar
    30    17     9   ar
    31    15    11   ar
    32     1    27    1
    33     1    28    1
    34     2    29    1
    35     5    30    1
    36     8    31    1
    37    10    32    1
    38    12    33    1
    39    13    34    1
    40    16    35    1
    41    20    36    1
    42    22    37    1
    43    23    38    1
    44    24    39    1
    45    25    40    1
    46    26    41    1
