@<TRIPOS>MOLECULE
*****
 30 34 0 0 0
SMALL
GASTEIGER

@<TRIPOS>ATOM
      1 C           4.1526   -1.4144    0.0147 C.3     1  UNL1       -0.0081
      2 C           5.5725   -0.9289   -0.0048 C.2     1  UNL1       -0.0797
      3 C           5.5883    0.4089   -0.0393 C.2     1  UNL1       -0.0651
      4 C           4.2349    0.9029   -0.0453 C.2     1  UNL1       -0.0575
      5 C           3.3588   -0.1207   -0.0147 C.2     1  UNL1       -0.0298
      6 C           1.9413    0.0805   -0.0127 C.ar    1  UNL1        0.0183
      7 C           1.2101    1.2791   -0.0395 C.ar    1  UNL1       -0.0232
      8 C          -0.1841    1.0183   -0.0256 C.ar    1  UNL1        0.0567
      9 N          -1.4282    1.6285   -0.0345 N.ar    1  UNL1       -0.3508
     10 C          -2.3274    0.6439   -0.0047 C.ar    1  UNL1        0.0901
     11 C          -3.6342    0.4041    0.0086 C.ar    1  UNL1        0.0886
     12 N          -4.7406    1.1517   -0.0042 N.ar    1  UNL1       -0.3578
     13 C          -5.7689    0.2218    0.0252 C.ar    1  UNL1        0.0042
     14 C          -5.2688   -1.0841    0.0556 C.ar    1  UNL1       -0.0203
     15 C          -3.8602   -0.9371    0.0440 C.ar    1  UNL1        0.0668
     16 N          -2.6182   -1.5380    0.0524 N.ar    1  UNL1       -0.3508
     17 C          -1.7219   -0.5412    0.0221 C.ar    1  UNL1        0.0813
     18 C          -0.4035   -0.3281    0.0097 C.ar    1  UNL1        0.0614
     19 S           0.9017   -1.3504    0.0289 S.2     1  UNL1       -0.0849
     20 H           3.9448   -2.0316   -0.8652 H       1  UNL1        0.0356
     21 H           3.9536   -1.9855    0.9271 H       1  UNL1        0.0356
     22 H           6.4399   -1.5710    0.0075 H       1  UNL1        0.0575
     23 H           6.4651    1.0382   -0.0597 H       1  UNL1        0.0615
     24 H           4.0090    1.9580   -0.0713 H       1  UNL1        0.0621
     25 H           1.6516    2.2661   -0.0669 H       1  UNL1        0.0650
     26 H          -1.6002    2.6229   -0.0588 H       1  UNL1        0.1660
     27 H          -4.7917    2.1617   -0.0295 H       1  UNL1        0.1654
     28 H          -6.7939    0.5696    0.0222 H       1  UNL1        0.0807
     29 H          -5.8500   -1.9952    0.0820 H       1  UNL1        0.0653
     30 H          -2.4326   -2.5302    0.0767 H       1  UNL1        0.1660
@<TRIPOS>BOND
     1     1     2    1
     2     2     3    2
     3     3     4    1
     4     4     5    2
     5     5     6    1
     6     6     7   ar
     7     7     8   ar
     8     8     9   ar
     9     9    10   ar
    10    10    11   ar
    11    11    12   ar
    12    12    13   ar
    13    13    14   ar
    14    14    15   ar
    15    15    16   ar
    16    16    17   ar
    17    17    18   ar
    18    18    19   ar
    19     5     1    1
    20    19     6   ar
    21    18     8   ar
    22    17    10   ar
    23    15    11   ar
    24     1    20    1
    25     1    21    1
    26     2    22    1
    27     3    23    1
    28     4    24    1
    29     7    25    1
    30     9    26    1
    31    12    27    1
    32    13    28    1
    33    14    29    1
    34    16    30    1
