@<TRIPOS>MOLECULE
*****
 50 57 0 0 0
SMALL
GASTEIGER

@<TRIPOS>ATOM
      1 C          -5.5050   -0.2361    0.7167 C.3     1  UNL1        0.0000
      2 C          -6.7196   -0.7111   -0.0323 C.2     1  UNL1        0.0000
      3 C          -6.3909   -0.9891   -1.3022 C.2     1  UNL1        0.0000
      4 C          -4.9867   -0.7364   -1.5008 C.2     1  UNL1        0.0000
      5 C          -4.4465   -0.2984   -0.3519 C.2     1  UNL1        0.0000
      6 C          -3.0676    0.0658   -0.1134 C.ar    1  UNL1        0.0000
      7 C          -2.1580   -0.9199    0.0391 C.ar    1  UNL1        0.0000
      8 C          -0.7059   -0.7216    0.2522 C.ar    1  UNL1        0.0000
      9 C          -0.1710    0.5479    0.2078 C.ar    1  UNL1        0.0000
     10 C           1.2713    0.6040    0.1305 C.ar    1  UNL1        0.0000
     11 N           1.9566    1.7466   -0.2019 N.ar    1  UNL1        0.0000
     12 C           3.3107    1.4998   -0.3024 C.ar    1  UNL1        0.0000
     13 C           4.3762    2.3878   -0.5865 C.ar    1  UNL1        0.0000
     14 C           5.6881    1.9070   -0.7341 C.ar    1  UNL1        0.0000
     15 C           5.7822    0.5206   -0.6408 C.ar    1  UNL1        0.0000
     16 C           6.9811   -0.1251   -0.8482 C.ar    1  UNL1        0.0000
     17 S           6.8057   -1.8387   -0.7808 S.2     1  UNL1        0.0000
     18 C           5.1120   -1.7249   -0.4767 C.ar    1  UNL1        0.0000
     19 C           4.7472   -0.4148   -0.3717 C.ar    1  UNL1        0.0000
     20 C           3.4377    0.1267   -0.1241 C.ar    1  UNL1        0.0000
     21 C           2.1998   -0.4305    0.2295 C.ar    1  UNL1        0.0000
     22 C           1.6896   -1.7133    0.5804 C.ar    1  UNL1        0.0000
     23 C           2.3455   -2.7757    1.0818 C.2     1  UNL1        0.0000
     24 SI          1.2020   -4.2105    1.3795 Si      1  UNL1        0.0000
     25 C          -0.2156   -3.1132    0.8717 C.2     1  UNL1        0.0000
     26 C           0.2041   -1.8767    0.5163 C.ar    1  UNL1        0.0000
     27 C          -1.1178    1.6871    0.1847 C.ar    1  UNL1        0.0000
     28 C          -0.8379    2.9902    0.4131 C.2     1  UNL1        0.0000
     29 SI         -2.3564    4.0757    0.2551 Si      1  UNL1        0.0000
     30 C          -3.3452    2.5386   -0.0532 C.2     1  UNL1        0.0000
     31 C          -2.5697    1.4349   -0.0242 C.ar    1  UNL1        0.0000
     32 H          -5.6552    0.7816    1.0914 H       1  UNL1        0.0000
     33 H          -5.2760   -0.9075    1.5499 H       1  UNL1        0.0000
     34 H          -7.7043   -0.8092    0.3996 H       1  UNL1        0.0000
     35 H          -7.0573   -1.3491   -2.0718 H       1  UNL1        0.0000
     36 H          -4.4698   -0.8835   -2.4378 H       1  UNL1        0.0000
     37 H          -2.4937   -1.9507   -0.0339 H       1  UNL1        0.0000
     38 H           1.5419    2.6351   -0.4267 H       1  UNL1        0.0000
     39 H           4.1832    3.4523   -0.7007 H       1  UNL1        0.0000
     40 H           6.5188    2.5666   -0.9533 H       1  UNL1        0.0000
     41 H           7.9516    0.3007   -1.0617 H       1  UNL1        0.0000
     42 H           4.5256   -2.6260   -0.4351 H       1  UNL1        0.0000
     43 H           3.3863   -2.8469    1.3415 H       1  UNL1        0.0000
     44 H           1.1314   -4.6005    2.8082 H       1  UNL1        0.0000
     45 H           1.4258   -5.3242    0.4269 H       1  UNL1        0.0000
     46 H          -1.2270   -3.4705    0.9716 H       1  UNL1        0.0000
     47 H           0.0925    3.4487    0.6937 H       1  UNL1        0.0000
     48 H          -2.7003    4.7410    1.5345 H       1  UNL1        0.0000
     49 H          -2.2743    4.9649   -0.9285 H       1  UNL1        0.0000
     50 H          -4.4151    2.5804   -0.1809 H       1  UNL1        0.0000
@<TRIPOS>BOND
     1     1     2    1
     2     2     3    2
     3     3     4    1
     4     4     5    2
     5     5     6    1
     6     6     7   ar
     7     7     8   ar
     8     8     9   ar
     9     9    10   ar
    10    10    11   ar
    11    11    12   ar
    12    12    13   ar
    13    13    14   ar
    14    14    15   ar
    15    15    16   ar
    16    16    17   ar
    17    17    18   ar
    18    18    19   ar
    19    19    20   ar
    20    20    21   ar
    21    21    22   ar
    22    22    23    2
    23    23    24    1
    24    24    25    1
    25    25    26    2
    26     9    27   ar
    27    27    28    2
    28    28    29    1
    29    29    30    1
    30    30    31    2
    31     5     1    1
    32    31     6   ar
    33    26     8   ar
    34    31    27   ar
    35    21    10   ar
    36    26    22   ar
    37    20    12   ar
    38    19    15   ar
    39     1    32    1
    40     1    33    1
    41     2    34    1
    42     3    35    1
    43     4    36    1
    44     7    37    1
    45    11    38    1
    46    13    39    1
    47    14    40    1
    48    16    41    1
    49    18    42    1
    50    23    43    1
    51    24    44    1
    52    24    45    1
    53    25    46    1
    54    28    47    1
    55    29    48    1
    56    29    49    1
    57    30    50    1
