@<TRIPOS>MOLECULE
*****
 37 42 0 0 0
SMALL
GASTEIGER

@<TRIPOS>ATOM
      1 C           4.7495    1.6788    0.0567 C.3     1  UNL1        0.0000
      2 C           6.1789    1.2235    0.0167 C.2     1  UNL1        0.0000
      3 C           6.2220   -0.1118   -0.0633 C.2     1  UNL1        0.0000
      4 C           4.8791   -0.6332   -0.0822 C.2     1  UNL1        0.0000
      5 C           3.9826    0.3708   -0.0143 C.2     1  UNL1        0.0000
      6 C           2.5723    0.1413   -0.0153 C.ar    1  UNL1        0.0000
      7 C           1.8556   -1.0456   -0.0794 C.ar    1  UNL1        0.0000
      8 C           0.4727   -0.8015   -0.0524 C.ar    1  UNL1        0.0000
      9 C          -0.5549   -1.8100   -0.1031 C.ar    1  UNL1        0.0000
     10 C          -0.4488   -3.1662   -0.1847 C.ar    1  UNL1        0.0000
     11 N          -1.7521   -3.6225   -0.2001 N.ar    1  UNL1        0.0000
     12 C          -2.6402   -2.5585   -0.1288 C.ar    1  UNL1        0.0000
     13 C          -1.9015   -1.3995   -0.0665 C.ar    1  UNL1        0.0000
     14 C          -2.3514   -0.0956    0.0151 C.ar    1  UNL1        0.0000
     15 C          -1.2974    0.8753    0.0634 C.ar    1  UNL1        0.0000
     16 SI         -2.0421    2.6258    0.1743 Si      1  UNL1        0.0000
     17 C          -3.7727    1.8685    0.1448 C.ar    1  UNL1        0.0000
     18 C          -5.1086    2.2450    0.1793 C.ar    1  UNL1        0.0000
     19 C          -5.8193    1.0564    0.1150 C.ar    1  UNL1        0.0000
     20 N          -4.9317   -0.0040    0.0439 N.ar    1  UNL1        0.0000
     21 C          -3.6657    0.4946    0.0621 C.ar    1  UNL1        0.0000
     22 C           0.0724    0.5278    0.0303 C.ar    1  UNL1        0.0000
     23 S           1.4938    1.4982    0.0752 S.2     1  UNL1        0.0000
     24 H           4.5255    2.3210   -0.8010 H       1  UNL1        0.0000
     25 H           4.5416    2.2143    0.9885 H       1  UNL1        0.0000
     26 H           7.0332    1.8824    0.0483 H       1  UNL1        0.0000
     27 H           7.1115   -0.7219   -0.1076 H       1  UNL1        0.0000
     28 H           4.6740   -1.6912   -0.1435 H       1  UNL1        0.0000
     29 H           2.3137   -2.0234   -0.1417 H       1  UNL1        0.0000
     30 H           0.3879   -3.8485   -0.2329 H       1  UNL1        0.0000
     31 H          -2.0226   -4.5960   -0.2555 H       1  UNL1        0.0000
     32 H          -3.7025   -2.7510   -0.1306 H       1  UNL1        0.0000
     33 H          -1.7364    3.4395   -1.0321 H       1  UNL1        0.0000
     34 H          -1.7138    3.2910    1.4629 H       1  UNL1        0.0000
     35 H          -5.5342    3.2379    0.2422 H       1  UNL1        0.0000
     36 H          -6.8843    0.8680    0.1133 H       1  UNL1        0.0000
     37 H          -5.1862   -0.9799   -0.0120 H       1  UNL1        0.0000
@<TRIPOS>BOND
     1     1     2    1
     2     2     3    2
     3     3     4    1
     4     4     5    2
     5     5     6    1
     6     6     7   ar
     7     7     8   ar
     8     8     9   ar
     9     9    10   ar
    10    10    11   ar
    11    11    12   ar
    12    12    13   ar
    13    13    14   ar
    14    14    15   ar
    15    15    16    1
    16    16    17    1
    17    17    18   ar
    18    18    19   ar
    19    19    20   ar
    20    20    21   ar
    21    15    22   ar
    22    22    23   ar
    23     5     1    1
    24    23     6   ar
    25    22     8   ar
    26    13     9   ar
    27    14    21    1
    28    21    17   ar
    29     1    24    1
    30     1    25    1
    31     2    26    1
    32     3    27    1
    33     4    28    1
    34     7    29    1
    35    10    30    1
    36    11    31    1
    37    12    32    1
    38    16    33    1
    39    16    34    1
    40    18    35    1
    41    19    36    1
    42    20    37    1
