@<TRIPOS>MOLECULE
*****
 48 55 0 0 0
SMALL
GASTEIGER

@<TRIPOS>ATOM
      1 C           4.5989   -1.4995   -1.0142 C.3     1  UNL1        0.0000
      2 C           6.0011   -1.5722   -0.4768 C.2     1  UNL1        0.0000
      3 C           6.1234   -0.7594    0.5818 C.2     1  UNL1        0.0000
      4 C           4.8673   -0.0993    0.8261 C.2     1  UNL1        0.0000
      5 C           3.9603   -0.5008   -0.0811 C.2     1  UNL1        0.0000
      6 C           2.5804   -0.0630   -0.1896 C.ar    1  UNL1        0.0000
      7 C           1.6044   -0.9940   -0.2667 C.ar    1  UNL1        0.0000
      8 C           0.1328   -0.7010   -0.3020 C.ar    1  UNL1        0.0000
      9 C          -0.8104   -1.7361   -0.5687 C.ar    1  UNL1        0.0000
     10 C          -0.4170   -2.9946   -1.1036 C.ar    1  UNL1        0.0000
     11 C          -1.3224   -4.0111   -1.3950 C.ar    1  UNL1        0.0000
     12 C          -2.6633   -3.7975   -1.1676 C.ar    1  UNL1        0.0000
     13 C          -3.0837   -2.5709   -0.6514 C.ar    1  UNL1        0.0000
     14 C          -2.1941   -1.5048   -0.3328 C.ar    1  UNL1        0.0000
     15 C          -2.6064   -0.2407    0.2425 C.ar    1  UNL1        0.0000
     16 C          -3.9644    0.0479    0.6079 C.ar    1  UNL1        0.0000
     17 O          -5.0790   -0.7442    0.4251 O.2     1  UNL1        0.0000
     18 C          -6.1646   -0.0875    0.9246 C.ar    1  UNL1        0.0000
     19 C          -5.8024    1.1306    1.4500 C.ar    1  UNL1        0.0000
     20 C          -4.4255    1.1799    1.2324 C.ar    1  UNL1        0.0000
     21 C          -3.5016    2.1753    1.5994 C.ar    1  UNL1        0.0000
     22 N          -3.8719    3.2557    2.2697 N.ar    1  UNL1        0.0000
     23 S          -2.4133    4.0319    2.5178 S.2     1  UNL1        0.0000
     24 N          -1.3814    2.9675    1.7570 N.ar    1  UNL1        0.0000
     25 C          -2.1151    1.9592    1.2334 C.ar    1  UNL1        0.0000
     26 C          -1.6425    0.8017    0.4854 C.ar    1  UNL1        0.0000
     27 C          -0.3010    0.6059    0.0502 C.ar    1  UNL1        0.0000
     28 C           0.7146    1.6798   -0.1575 C.ar    1  UNL1        0.0000
     29 C           0.4574    2.9649   -0.4851 C.2     1  UNL1        0.0000
     30 SI          2.0176    3.9564   -0.7166 Si      1  UNL1        0.0000
     31 C           2.9705    2.3757   -0.4977 C.2     1  UNL1        0.0000
     32 C           2.1520    1.3320   -0.2447 C.ar    1  UNL1        0.0000
     33 H           4.5970   -1.1402   -2.0481 H       1  UNL1        0.0000
     34 H           4.1196   -2.4817   -0.9610 H       1  UNL1        0.0000
     35 H           6.7829   -2.1917   -0.8889 H       1  UNL1        0.0000
     36 H           7.0140   -0.6058    1.1721 H       1  UNL1        0.0000
     37 H           4.7031    0.6098    1.6240 H       1  UNL1        0.0000
     38 H           1.8820   -2.0391   -0.1840 H       1  UNL1        0.0000
     39 H           0.6228   -3.2003   -1.3453 H       1  UNL1        0.0000
     40 H          -0.9756   -4.9540   -1.8080 H       1  UNL1        0.0000
     41 H          -3.3913   -4.5725   -1.3914 H       1  UNL1        0.0000
     42 H          -4.1542   -2.4759   -0.5057 H       1  UNL1        0.0000
     43 H          -7.1048   -0.6147    0.8371 H       1  UNL1        0.0000
     44 H          -6.4474    1.8573    1.9231 H       1  UNL1        0.0000
     45 H          -0.5007    3.4394   -0.6150 H       1  UNL1        0.0000
     46 H           2.1389    4.5071   -2.0886 H       1  UNL1        0.0000
     47 H           2.2558    4.9271    0.3793 H       1  UNL1        0.0000
     48 H           4.0374    2.3469   -0.6515 H       1  UNL1        0.0000
@<TRIPOS>BOND
     1     1     2    1
     2     2     3    2
     3     3     4    1
     4     4     5    2
     5     5     6    1
     6     6     7   ar
     7     7     8   ar
     8     8     9   ar
     9     9    10   ar
    10    10    11   ar
    11    11    12   ar
    12    12    13   ar
    13    13    14   ar
    14    14    15   ar
    15    15    16   ar
    16    16    17   ar
    17    17    18   ar
    18    18    19   ar
    19    19    20   ar
    20    20    21   ar
    21    21    22   ar
    22    22    23   ar
    23    23    24   ar
    24    24    25   ar
    25    25    26   ar
    26    26    27   ar
    27    27    28   ar
    28    28    29    2
    29    29    30    1
    30    30    31    1
    31    31    32    2
    32     5     1    1
    33    32     6   ar
    34    27     8   ar
    35    32    28   ar
    36    14     9   ar
    37    26    15   ar
    38    20    16   ar
    39    25    21   ar
    40     1    33    1
    41     1    34    1
    42     2    35    1
    43     3    36    1
    44     4    37    1
    45     7    38    1
    46    10    39    1
    47    11    40    1
    48    12    41    1
    49    13    42    1
    50    18    43    1
    51    19    44    1
    52    29    45    1
    53    30    46    1
    54    30    47    1
    55    31    48    1
