@<TRIPOS>MOLECULE
*****
 43 49 0 0 0
SMALL
GASTEIGER

@<TRIPOS>ATOM
      1 C           4.4289   -1.4058    0.6711 C.3     1  UNL1       -0.0057
      2 C           5.9283   -1.3413    0.7155 C.2     1  UNL1       -0.0796
      3 C           6.3381   -0.1282    0.3230 C.2     1  UNL1       -0.0650
      4 C           5.1918    0.6829   -0.0021 C.2     1  UNL1       -0.0551
      5 C           4.0609   -0.0216    0.1865 C.2     1  UNL1       -0.0014
      6 C           2.7607    0.5020   -0.0482 C.ar    1  UNL1        0.1326
      7 C           2.3492    1.7582   -0.4917 C.ar    1  UNL1       -0.0077
      8 C           0.9630    1.6924   -0.5305 C.ar    1  UNL1        0.0321
      9 C          -0.0009    2.6453   -0.8957 C.ar    1  UNL1        0.0313
     10 C           0.1498    3.9240   -1.3219 C.ar    1  UNL1        0.1001
     11 O          -1.1066    4.4186   -1.5447 O.2     1  UNL1       -0.4698
     12 C          -2.0034    3.4186   -1.2458 C.ar    1  UNL1        0.1001
     13 C          -1.3544    2.2745   -0.8299 C.ar    1  UNL1        0.0303
     14 C          -1.8762    1.0253   -0.4300 C.ar    1  UNL1        0.0209
     15 C          -3.2352    0.6678   -0.3690 C.ar    1  UNL1        0.0557
     16 N          -4.3861    1.3728   -0.6588 N.ar    1  UNL1       -0.3601
     17 C          -5.4999    0.6110   -0.4500 C.ar    1  UNL1        0.0028
     18 C          -5.0783   -0.6185   -0.0149 C.ar    1  UNL1       -0.0361
     19 C          -3.6477   -0.6054    0.0439 C.ar    1  UNL1        0.0080
     20 C          -2.6705   -1.5750    0.4156 C.ar    1  UNL1       -0.0080
     21 C          -3.1235   -2.8506    0.8277 C.ar    1  UNL1       -0.0534
     22 C          -2.2262   -3.8445    1.2039 C.ar    1  UNL1       -0.0611
     23 C          -0.8677   -3.5795    1.1742 C.ar    1  UNL1       -0.0611
     24 C          -0.4086   -2.3213    0.7683 C.ar    1  UNL1       -0.0533
     25 C          -1.2833   -1.2726    0.3744 C.ar    1  UNL1       -0.0059
     26 C          -0.8803    0.0405   -0.0525 C.ar    1  UNL1        0.0354
     27 C           0.5005    0.4607   -0.1339 C.ar    1  UNL1        0.1447
     28 O           1.6269   -0.2678    0.1624 O.2     1  UNL1       -0.4545
     29 H           4.0910   -2.1759   -0.0294 H       1  UNL1        0.0357
     30 H           4.0162   -1.6022    1.6657 H       1  UNL1        0.0357
     31 H           6.5675   -2.1563    1.0196 H       1  UNL1        0.0575
     32 H           7.3612    0.2097    0.2539 H       1  UNL1        0.0615
     33 H           5.2792    1.7032   -0.3435 H       1  UNL1        0.0621
     34 H           2.9926    2.5879   -0.7442 H       1  UNL1        0.0662
     35 H           0.9722    4.5975   -1.5136 H       1  UNL1        0.1036
     36 H          -3.0282    3.7172   -1.3920 H       1  UNL1        0.1036
     37 H          -4.4188    2.3252   -0.9830 H       1  UNL1        0.1654
     38 H          -6.4906    1.0072   -0.6281 H       1  UNL1        0.0807
     39 H          -5.7306   -1.4443    0.2360 H       1  UNL1        0.0639
     40 H          -4.1846   -3.0834    0.8596 H       1  UNL1        0.0624
     41 H          -2.5890   -4.8190    1.5180 H       1  UNL1        0.0618
     42 H          -0.1547   -4.3464    1.4654 H       1  UNL1        0.0618
     43 H           0.6673   -2.1826    0.7688 H       1  UNL1        0.0624
@<TRIPOS>BOND
     1     1     2    1
     2     2     3    2
     3     3     4    1
     4     4     5    2
     5     5     6    1
     6     6     7   ar
     7     7     8   ar
     8     8     9   ar
     9     9    10   ar
    10    10    11   ar
    11    11    12   ar
    12    12    13   ar
    13    13    14   ar
    14    14    15   ar
    15    15    16   ar
    16    16    17   ar
    17    17    18   ar
    18    18    19   ar
    19    19    20   ar
    20    20    21   ar
    21    21    22   ar
    22    22    23   ar
    23    23    24   ar
    24    24    25   ar
    25    25    26   ar
    26    26    27   ar
    27    27    28   ar
    28     5     1    1
    29    28     6   ar
    30    27     8   ar
    31    13     9   ar
    32    26    14   ar
    33    19    15   ar
    34    25    20   ar
    35     1    29    1
    36     1    30    1
    37     2    31    1
    38     3    32    1
    39     4    33    1
    40     7    34    1
    41    10    35    1
    42    12    36    1
    43    16    37    1
    44    17    38    1
    45    18    39    1
    46    21    40    1
    47    22    41    1
    48    23    42    1
    49    24    43    1
