@<TRIPOS>MOLECULE
*****
 44 50 0 0 0
SMALL
GASTEIGER

@<TRIPOS>ATOM
      1 C           5.9108   -1.3037   -0.7844 C.3     1  UNL1        0.0000
      2 C           7.3027   -0.7401   -0.7089 C.2     1  UNL1        0.0000
      3 C           7.2541    0.5309   -0.2887 C.2     1  UNL1        0.0000
      4 C           5.8823    0.9069   -0.0580 C.2     1  UNL1        0.0000
      5 C           5.0735   -0.1323   -0.3347 C.2     1  UNL1        0.0000
      6 C           3.6153   -0.2314   -0.2533 C.ar    1  UNL1        0.0000
      7 C           2.8168    0.8290    0.1648 C.ar    1  UNL1        0.0000
      8 C           1.4135    0.6572    0.2175 C.ar    1  UNL1        0.0000
      9 C           0.4335    1.5923    0.6479 C.ar    1  UNL1        0.0000
     10 C           0.7547    2.8454    1.1304 C.ar    1  UNL1        0.0000
     11 S          -0.6280    3.7137    1.6815 S.2     1  UNL1        0.0000
     12 C          -1.6841    2.4168    1.2820 C.ar    1  UNL1        0.0000
     13 C          -0.9791    1.4113    0.6887 C.ar    1  UNL1        0.0000
     14 C          -1.5021    0.1627    0.2102 C.ar    1  UNL1        0.0000
     15 C          -0.5599   -0.8090   -0.1335 C.ar    1  UNL1        0.0000
     16 N          -1.3052   -1.9475   -0.3956 N.ar    1  UNL1        0.0000
     17 C          -2.6376   -1.6754   -0.2582 C.ar    1  UNL1        0.0000
     18 C          -3.6277   -2.6845   -0.3952 C.ar    1  UNL1        0.0000
     19 C          -4.9111   -2.2909   -0.2732 C.ar    1  UNL1        0.0000
     20 C          -5.2327   -0.8778   -0.0843 C.ar    1  UNL1        0.0000
     21 C          -6.4915   -0.3981   -0.0827 C.2     1  UNL1        0.0000
     22 SI         -6.4916    1.4659   -0.0109 Si      1  UNL1        0.0000
     23 C          -4.6220    1.4242   -0.0102 C.2     1  UNL1        0.0000
     24 C          -4.1551    0.1623    0.0258 C.ar    1  UNL1        0.0000
     25 C          -2.8040   -0.3215    0.0115 C.ar    1  UNL1        0.0000
     26 C           0.8549   -0.5867   -0.1576 C.ar    1  UNL1        0.0000
     27 C           1.7495   -1.5824   -0.5561 C.ar    1  UNL1        0.0000
     28 N           3.0949   -1.4305   -0.6098 N.ar    1  UNL1        0.0000
     29 H           5.6738   -1.6033   -1.8105 H       1  UNL1        0.0000
     30 H           5.8071   -2.1605   -0.1107 H       1  UNL1        0.0000
     31 H           8.1975   -1.2893   -0.9592 H       1  UNL1        0.0000
     32 H           8.0981    1.1873   -0.1400 H       1  UNL1        0.0000
     33 H           5.5968    1.8889    0.2854 H       1  UNL1        0.0000
     34 H           3.2628    1.7729    0.4505 H       1  UNL1        0.0000
     35 H           1.7232    3.3139    1.2271 H       1  UNL1        0.0000
     36 H          -2.7251    2.4845    1.5474 H       1  UNL1        0.0000
     37 H          -0.9181   -2.8504   -0.6289 H       1  UNL1        0.0000
     38 H          -3.3694   -3.7240   -0.5632 H       1  UNL1        0.0000
     39 H          -5.7223   -3.0060   -0.3551 H       1  UNL1        0.0000
     40 H          -7.4068   -0.9595   -0.1811 H       1  UNL1        0.0000
     41 H          -7.0441    1.9849    1.2634 H       1  UNL1        0.0000
     42 H          -7.0440    2.0799   -1.2421 H       1  UNL1        0.0000
     43 H          -4.0658    2.3411   -0.0771 H       1  UNL1        0.0000
     44 H           1.4114   -2.5671   -0.8629 H       1  UNL1        0.0000
@<TRIPOS>BOND
     1     1     2    1
     2     2     3    2
     3     3     4    1
     4     4     5    2
     5     5     6    1
     6     6     7   ar
     7     7     8   ar
     8     8     9   ar
     9     9    10   ar
    10    10    11   ar
    11    11    12   ar
    12    12    13   ar
    13    13    14   ar
    14    14    15   ar
    15    15    16   ar
    16    16    17   ar
    17    17    18   ar
    18    18    19   ar
    19    19    20   ar
    20    20    21    2
    21    21    22    1
    22    22    23    1
    23    23    24    2
    24    24    25   ar
    25    15    26   ar
    26    26    27   ar
    27    27    28   ar
    28     5     1    1
    29    28     6   ar
    30    26     8   ar
    31    13     9   ar
    32    25    14   ar
    33    25    17   ar
    34    24    20   ar
    35     1    29    1
    36     1    30    1
    37     2    31    1
    38     3    32    1
    39     4    33    1
    40     7    34    1
    41    10    35    1
    42    12    36    1
    43    16    37    1
    44    18    38    1
    45    19    39    1
    46    21    40    1
    47    22    41    1
    48    22    42    1
    49    23    43    1
    50    27    44    1
