@<TRIPOS>MOLECULE
*****
 35 40 0 0 0
SMALL
GASTEIGER

@<TRIPOS>ATOM
      1 C           4.9646   -0.0671   -0.6241 C.3     1  UNL1       -0.0057
      2 C           6.1009   -0.0183    0.3561 C.2     1  UNL1       -0.0796
      3 C           5.6157    0.0559    1.6025 C.2     1  UNL1       -0.0650
      4 C           4.1760    0.0622    1.5551 C.2     1  UNL1       -0.0551
      5 C           3.7553   -0.0079    0.2790 C.2     1  UNL1       -0.0014
      6 C           2.3732   -0.0181   -0.0525 C.ar    1  UNL1        0.1328
      7 C           1.7859   -0.0866   -1.3227 C.ar    1  UNL1       -0.0077
      8 C           0.4135   -0.0654   -1.1035 C.ar    1  UNL1        0.0327
      9 C          -0.7149   -0.1076   -1.9739 C.ar    1  UNL1        0.0007
     10 C          -0.6269   -0.1857   -3.3363 C.ar    1  UNL1       -0.0159
     11 S          -2.2178   -0.2145   -4.0233 S.2     1  UNL1       -0.1038
     12 C          -2.9884   -0.1214   -2.4737 C.ar    1  UNL1       -0.0159
     13 C          -2.0399   -0.0716   -1.4904 C.ar    1  UNL1        0.0010
     14 C          -2.3363    0.0094   -0.1012 C.ar    1  UNL1        0.0361
     15 C          -3.4954    0.0588    0.6352 C.ar    1  UNL1        0.0100
     16 C          -4.9682    0.0649    0.5760 C.3     1  UNL1       -0.0049
     17 C          -5.2923    0.1526    2.0809 C.2     1  UNL1       -0.0761
     18 C          -4.1760    0.1890    2.8479 C.2     1  UNL1       -0.0226
     19 C          -3.0879    0.1312    1.9554 C.ar    1  UNL1        0.1325
     20 O          -1.7317    0.1288    2.0660 O.2     1  UNL1       -0.4514
     21 C          -1.2716    0.0525    0.7768 C.ar    1  UNL1        0.1791
     22 C           0.1724    0.0126    0.2397 C.ar    1  UNL1        0.1789
     23 O           1.3568    0.0425    0.8979 O.2     1  UNL1       -0.4514
     24 H           4.9980    0.7910   -1.3028 H       1  UNL1        0.0357
     25 H           4.9867   -0.9972   -1.2007 H       1  UNL1        0.0357
     26 H           7.1460   -0.0402    0.0871 H       1  UNL1        0.0575
     27 H           6.1921    0.1043    2.5140 H       1  UNL1        0.0615
     28 H           3.5509    0.1164    2.4354 H       1  UNL1        0.0621
     29 H           2.3211   -0.1433   -2.2593 H       1  UNL1        0.0662
     30 H           0.2424   -0.2278   -3.9774 H       1  UNL1        0.0700
     31 H          -4.0667   -0.1105   -2.4039 H       1  UNL1        0.0700
     32 H          -5.3701   -0.8572    0.1478 H       1  UNL1        0.0357
     33 H          -5.3585    0.9377    0.0457 H       1  UNL1        0.0357
     34 H          -6.3029    0.1809    2.4622 H       1  UNL1        0.0576
     35 H          -4.1060    0.2497    3.9224 H       1  UNL1        0.0651
@<TRIPOS>BOND
     1     1     2    1
     2     2     3    2
     3     3     4    1
     4     4     5    2
     5     5     6    1
     6     6     7   ar
     7     7     8   ar
     8     8     9   ar
     9     9    10   ar
    10    10    11   ar
    11    11    12   ar
    12    12    13   ar
    13    13    14   ar
    14    14    15   ar
    15    15    16    1
    16    16    17    1
    17    17    18    2
    18    18    19    1
    19    19    20   ar
    20    20    21   ar
    21    21    22   ar
    22    22    23   ar
    23     5     1    1
    24    23     6   ar
    25    22     8   ar
    26    13     9   ar
    27    21    14   ar
    28    19    15   ar
    29     1    24    1
    30     1    25    1
    31     2    26    1
    32     3    27    1
    33     4    28    1
    34     7    29    1
    35    10    30    1
    36    12    31    1
    37    16    32    1
    38    16    33    1
    39    17    34    1
    40    18    35    1
