@<TRIPOS>MOLECULE
*****
 44 50 0 0 0
SMALL
GASTEIGER

@<TRIPOS>ATOM
      1 C           4.9680   -0.5726    1.2170 C.3     1  UNL1        0.0000
      2 C           6.2252   -1.2607    0.7626 C.2     1  UNL1        0.0000
      3 C           6.0266   -1.8200   -0.4389 C.2     1  UNL1        0.0000
      4 C           4.6755   -1.5662   -0.8664 C.2     1  UNL1        0.0000
      5 C           4.0345   -0.8414    0.0672 C.2     1  UNL1        0.0000
      6 C           2.6608   -0.3777    0.0208 C.ar    1  UNL1        0.0000
      7 C           1.8337   -0.7235    1.0290 C.ar    1  UNL1        0.0000
      8 C           0.3958   -0.3922    1.0412 C.ar    1  UNL1        0.0000
      9 C          -0.3824   -0.7821    2.1605 C.ar    1  UNL1        0.0000
     10 N           0.0894   -1.3164    3.3039 N.ar    1  UNL1        0.0000
     11 S          -1.2078   -1.5606    4.2929 S.2     1  UNL1        0.0000
     12 N          -2.4202   -1.0194    3.3188 N.ar    1  UNL1        0.0000
     13 C          -1.8802   -0.6162    2.1546 C.ar    1  UNL1        0.0000
     14 C          -2.5739   -0.1105    0.9907 C.ar    1  UNL1        0.0000
     15 C          -1.7341    0.2674   -0.1184 C.ar    1  UNL1        0.0000
     16 C          -2.4251    0.6224   -1.2937 C.ar    1  UNL1        0.0000
     17 C          -3.8148    0.7162   -1.3590 C.ar    1  UNL1        0.0000
     18 C          -4.5980    0.4145   -0.2495 C.ar    1  UNL1        0.0000
     19 C          -5.9945    0.5219   -0.3316 C.ar    1  UNL1        0.0000
     20 C          -6.7823    0.1866    0.7582 C.ar    1  UNL1        0.0000
     21 C          -6.1386   -0.2482    1.8937 C.ar    1  UNL1        0.0000
     22 N          -4.7966   -0.3510    1.9966 N.ar    1  UNL1        0.0000
     23 C          -4.0008   -0.0235    0.9494 C.ar    1  UNL1        0.0000
     24 C          -0.2847    0.2320   -0.0445 C.ar    1  UNL1        0.0000
     25 C           0.6547    0.8392   -1.0514 C.ar    1  UNL1        0.0000
     26 C           0.3807    1.8422   -1.9157 C.2     1  UNL1        0.0000
     27 SI          1.8646    2.3203   -2.9486 Si      1  UNL1        0.0000
     28 C           2.8564    1.1165   -1.9505 C.2     1  UNL1        0.0000
     29 C           2.1027    0.4788   -1.0291 C.ar    1  UNL1        0.0000
     30 H           5.1379    0.4991    1.3515 H       1  UNL1        0.0000
     31 H           4.6101   -1.0116    2.1527 H       1  UNL1        0.0000
     32 H           7.1446   -1.2914    1.3287 H       1  UNL1        0.0000
     33 H           6.7497   -2.3792   -1.0108 H       1  UNL1        0.0000
     34 H           4.2601   -1.9213   -1.7988 H       1  UNL1        0.0000
     35 H           2.1932   -1.3436    1.8455 H       1  UNL1        0.0000
     36 H          -1.8947    0.7913   -2.2276 H       1  UNL1        0.0000
     37 H          -4.2754    1.0122   -2.2992 H       1  UNL1        0.0000
     38 H          -6.4742    0.8612   -1.2450 H       1  UNL1        0.0000
     39 H          -7.8626    0.2557    0.7205 H       1  UNL1        0.0000
     40 H          -6.6921   -0.5396    2.7835 H       1  UNL1        0.0000
     41 H          -0.5339    2.3935   -2.0455 H       1  UNL1        0.0000
     42 H           1.7082    1.9164   -4.3657 H       1  UNL1        0.0000
     43 H           2.2684    3.7305   -2.7230 H       1  UNL1        0.0000
     44 H           3.9262    1.0508   -2.0739 H       1  UNL1        0.0000
@<TRIPOS>BOND
     1     1     2    1
     2     2     3    2
     3     3     4    1
     4     4     5    2
     5     5     6    1
     6     6     7   ar
     7     7     8   ar
     8     8     9   ar
     9     9    10   ar
    10    10    11   ar
    11    11    12   ar
    12    12    13   ar
    13    13    14   ar
    14    14    15   ar
    15    15    16   ar
    16    16    17   ar
    17    17    18   ar
    18    18    19   ar
    19    19    20   ar
    20    20    21   ar
    21    21    22   ar
    22    22    23   ar
    23    15    24   ar
    24    24    25   ar
    25    25    26    2
    26    26    27    1
    27    27    28    1
    28    28    29    2
    29     5     1    1
    30    29     6   ar
    31    24     8   ar
    32    29    25   ar
    33    13     9   ar
    34    23    14   ar
    35    23    18   ar
    36     1    30    1
    37     1    31    1
    38     2    32    1
    39     3    33    1
    40     4    34    1
    41     7    35    1
    42    16    36    1
    43    17    37    1
    44    19    38    1
    45    20    39    1
    46    21    40    1
    47    26    41    1
    48    27    42    1
    49    27    43    1
    50    28    44    1
