@<TRIPOS>MOLECULE
*****
 41 47 0 0 0
SMALL
GASTEIGER

@<TRIPOS>ATOM
      1 C          -4.7724    1.4669    0.2640 C.3     1  UNL1       -0.0086
      2 C          -6.2042    1.0849    0.5155 C.2     1  UNL1       -0.0797
      3 C          -6.2939   -0.2394    0.6990 C.2     1  UNL1       -0.0651
      4 C          -4.9840   -0.8274    0.5884 C.2     1  UNL1       -0.0580
      5 C          -4.0787    0.1295    0.3208 C.2     1  UNL1       -0.0359
      6 C          -2.6423   -0.0140    0.1558 C.ar    1  UNL1       -0.0118
      7 C          -1.6940    0.8764    0.7016 C.ar    1  UNL1       -0.0438
      8 C          -0.2588    0.7406    0.5442 C.ar    1  UNL1        0.0126
      9 C           0.6216    1.6834    1.1452 C.ar    1  UNL1        0.1082
     10 N           0.2547    2.7545    1.8850 N.ar    1  UNL1       -0.1901
     11 S           1.6490    3.5351    2.3566 S.2     1  UNL1        0.1165
     12 N           2.7923    2.5544    1.6430 N.ar    1  UNL1       -0.1901
     13 C           2.0694    1.6202    1.0408 C.ar    1  UNL1        0.1093
     14 C           2.6601    0.5381    0.2830 C.ar    1  UNL1        0.0257
     15 C           4.0691    0.3518    0.0985 C.ar    1  UNL1       -0.0009
     16 C           5.2231    1.0603    0.5306 C.ar    1  UNL1       -0.0529
     17 C           6.5093    0.6302    0.1863 C.ar    1  UNL1       -0.0611
     18 C           6.6816   -0.5040   -0.5888 C.ar    1  UNL1       -0.0607
     19 C           5.5741   -1.2258   -1.0316 C.ar    1  UNL1       -0.0474
     20 C           4.2797   -0.7871   -0.6811 C.ar    1  UNL1        0.0206
     21 S           2.8050   -1.5389   -1.1285 S.2     1  UNL1       -0.0875
     22 C           1.8101   -0.3886   -0.3108 C.ar    1  UNL1        0.0310
     23 C           0.3935   -0.3095   -0.1983 C.ar    1  UNL1        0.0078
     24 C          -0.5785   -1.1687   -0.7522 C.ar    1  UNL1        0.0088
     25 C          -0.3947   -2.2724   -1.5539 C.ar    1  UNL1        0.0100
     26 N          -1.6331   -2.7772   -1.8835 N.ar    1  UNL1       -0.3659
     27 C          -2.6203   -2.0152   -1.3111 C.ar    1  UNL1        0.0100
     28 C          -2.0086   -1.0230   -0.5811 C.ar    1  UNL1        0.0074
     29 H          -4.6626    1.9345   -0.7196 H       1  UNL1        0.0356
     30 H          -4.4196    2.1499    1.0428 H       1  UNL1        0.0356
     31 H          -7.0270    1.7827    0.5451 H       1  UNL1        0.0575
     32 H          -7.1948   -0.7977    0.9029 H       1  UNL1        0.0615
     33 H          -4.7890   -1.8799    0.7282 H       1  UNL1        0.0620
     34 H          -2.0603    1.7126    1.3000 H       1  UNL1        0.0630
     35 H           5.1279    1.9552    1.1406 H       1  UNL1        0.0624
     36 H           7.3740    1.1922    0.5311 H       1  UNL1        0.0618
     37 H           7.6829   -0.8347   -0.8539 H       1  UNL1        0.0618
     38 H           5.7094   -2.1162   -1.6398 H       1  UNL1        0.0629
     39 H           0.4805   -2.7644   -1.9488 H       1  UNL1        0.0813
     40 H          -1.7909   -3.5820   -2.4764 H       1  UNL1        0.1648
     41 H          -3.6598   -2.2532   -1.4891 H       1  UNL1        0.0813
@<TRIPOS>BOND
     1     1     2    1
     2     2     3    2
     3     3     4    1
     4     4     5    2
     5     5     6    1
     6     6     7   ar
     7     7     8   ar
     8     8     9   ar
     9     9    10   ar
    10    10    11   ar
    11    11    12   ar
    12    12    13   ar
    13    13    14   ar
    14    14    15   ar
    15    15    16   ar
    16    16    17   ar
    17    17    18   ar
    18    18    19   ar
    19    19    20   ar
    20    20    21   ar
    21    21    22   ar
    22    22    23   ar
    23    23    24   ar
    24    24    25   ar
    25    25    26   ar
    26    26    27   ar
    27    27    28   ar
    28     5     1    1
    29    28     6   ar
    30    23     8   ar
    31    28    24   ar
    32    13     9   ar
    33    22    14   ar
    34    20    15   ar
    35     1    29    1
    36     1    30    1
    37     2    31    1
    38     3    32    1
    39     4    33    1
    40     7    34    1
    41    16    35    1
    42    17    36    1
    43    18    37    1
    44    19    38    1
    45    25    39    1
    46    26    40    1
    47    27    41    1
