@<TRIPOS>MOLECULE
*****
 44 51 0 0 0
SMALL
GASTEIGER

@<TRIPOS>ATOM
      1 C           5.2555   -1.8168   -0.2708 C.3     1  UNL1       -0.0086
      2 C           6.7257   -1.5654   -0.4338 C.2     1  UNL1       -0.0797
      3 C           6.9526   -0.2472   -0.4791 C.2     1  UNL1       -0.0651
      4 C           5.7033    0.4577   -0.3515 C.2     1  UNL1       -0.0579
      5 C           4.6867   -0.4145   -0.2189 C.2     1  UNL1       -0.0344
      6 C           3.2503   -0.1554   -0.0617 C.ar    1  UNL1        0.0073
      7 C           2.2821   -1.1653   -0.1746 C.ar    1  UNL1       -0.0423
      8 C           0.8682   -0.9618   -0.0425 C.ar    1  UNL1        0.0137
      9 C           0.0140   -2.1084   -0.0910 C.ar    1  UNL1        0.1083
     10 N           0.4452   -3.3743   -0.2648 N.ar    1  UNL1       -0.1901
     11 S          -0.8749   -4.3574   -0.2017 S.2     1  UNL1        0.1165
     12 N          -2.0502   -3.2375    0.0356 N.ar    1  UNL1       -0.1901
     13 C          -1.4867   -2.0146    0.0794 C.ar    1  UNL1        0.1102
     14 C          -2.1721   -0.7539    0.2364 C.ar    1  UNL1        0.0375
     15 C          -3.6331   -0.7314    0.4092 C.ar    1  UNL1        0.0814
     16 N          -4.3645   -1.8611    0.5535 N.ar    1  UNL1       -0.2543
     17 C          -5.7083   -1.8141    0.7187 C.ar    1  UNL1        0.0283
     18 C          -6.4424   -0.6500    0.7536 C.ar    1  UNL1       -0.0430
     19 C          -5.7506    0.5361    0.6061 C.ar    1  UNL1       -0.0505
     20 C          -4.3462    0.4950    0.4371 C.ar    1  UNL1        0.0102
     21 C          -3.5089    1.6057    0.2363 C.ar    1  UNL1        0.0092
     22 C          -3.9277    2.9082    0.0938 C.ar    1  UNL1        0.0101
     23 N          -2.8168    3.6560   -0.1997 N.ar    1  UNL1       -0.3659
     24 C          -1.7130    2.8371   -0.2662 C.ar    1  UNL1        0.0100
     25 C          -2.0851    1.5648    0.1035 C.ar    1  UNL1        0.0085
     26 C          -1.2639    0.3991    0.1746 C.ar    1  UNL1        0.0053
     27 C           0.2192    0.2945    0.1627 C.ar    1  UNL1        0.0209
     28 C           1.2032    1.3379    0.4221 C.ar    1  UNL1        0.1088
     29 N           0.9382    2.5771    0.8721 N.ar    1  UNL1       -0.1901
     30 S           2.3566    3.3964    1.0201 S.2     1  UNL1        0.1165
     31 N           3.4189    2.2295    0.5585 N.ar    1  UNL1       -0.1902
     32 C           2.7157    1.1138    0.2895 C.ar    1  UNL1        0.1079
     33 H           4.8733   -2.3804   -1.1281 H       1  UNL1        0.0356
     34 H           5.0592   -2.3653    0.6561 H       1  UNL1        0.0356
     35 H           7.4766   -2.3374   -0.5042 H       1  UNL1        0.0575
     36 H           7.9118    0.2351   -0.5907 H       1  UNL1        0.0615
     37 H           5.6476    1.5356   -0.3707 H       1  UNL1        0.0620
     38 H           2.6256   -2.1825   -0.3747 H       1  UNL1        0.0631
     39 H          -6.1872   -2.7835    0.8251 H       1  UNL1        0.0830
     40 H          -7.5169   -0.6687    0.8871 H       1  UNL1        0.0633
     41 H          -6.2869    1.4789    0.6204 H       1  UNL1        0.0625
     42 H          -4.9031    3.3732    0.1325 H       1  UNL1        0.0813
     43 H          -2.8141    4.6488   -0.3969 H       1  UNL1        0.1648
     44 H          -0.7773    3.2661   -0.5890 H       1  UNL1        0.0813
@<TRIPOS>BOND
     1     1     2    1
     2     2     3    2
     3     3     4    1
     4     4     5    2
     5     5     6    1
     6     6     7   ar
     7     7     8   ar
     8     8     9   ar
     9     9    10   ar
    10    10    11   ar
    11    11    12   ar
    12    12    13   ar
    13    13    14   ar
    14    14    15   ar
    15    15    16   ar
    16    16    17   ar
    17    17    18   ar
    18    18    19   ar
    19    19    20   ar
    20    20    21   ar
    21    21    22   ar
    22    22    23   ar
    23    23    24   ar
    24    24    25   ar
    25    25    26   ar
    26    26    27   ar
    27    27    28   ar
    28    28    29   ar
    29    29    30   ar
    30    30    31   ar
    31    31    32   ar
    32     5     1    1
    33    32     6   ar
    34    27     8   ar
    35    32    28   ar
    36    13     9   ar
    37    26    14   ar
    38    20    15   ar
    39    25    21   ar
    40     1    33    1
    41     1    34    1
    42     2    35    1
    43     3    36    1
    44     4    37    1
    45     7    38    1
    46    17    39    1
    47    18    40    1
    48    19    41    1
    49    22    42    1
    50    23    43    1
    51    24    44    1
