@<TRIPOS>MOLECULE
*****
 42 47 0 0 0
SMALL
GASTEIGER

@<TRIPOS>ATOM
      1 SI          1.1208    2.5589   -2.3403 Si      1  UNL1        0.0000
      2 C           2.3711    1.6307   -1.3253 C.2     1  UNL1        0.0000
      3 C           1.8099    0.5982   -0.6608 C.ar    1  UNL1        0.0000
      4 C           2.5646   -0.4281    0.0612 C.ar    1  UNL1        0.0000
      5 C           1.8896   -1.5324    0.4441 C.ar    1  UNL1        0.0000
      6 C           0.4377   -1.7047    0.2411 C.ar    1  UNL1        0.0000
      7 N          -0.0129   -2.9356    0.5547 N.ar    1  UNL1        0.0000
      8 C          -1.3398   -3.1236    0.4446 C.ar    1  UNL1        0.0000
      9 C          -2.2679   -2.1198    0.1699 C.ar    1  UNL1        0.0000
     10 C          -3.6272   -2.4459    0.1127 C.ar    1  UNL1        0.0000
     11 C          -4.5859   -1.4606   -0.0785 C.ar    1  UNL1        0.0000
     12 C          -4.2169   -0.1179   -0.1125 C.ar    1  UNL1        0.0000
     13 C          -5.2229    0.8619   -0.1791 C.ar    1  UNL1        0.0000
     14 C          -4.9134    2.2153   -0.0963 C.ar    1  UNL1        0.0000
     15 C          -3.5956    2.5984    0.0844 C.ar    1  UNL1        0.0000
     16 C          -2.5899    1.6274    0.1314 C.ar    1  UNL1        0.0000
     17 C          -2.8450    0.2430   -0.0328 C.ar    1  UNL1        0.0000
     18 C          -1.8183   -0.7913   -0.0309 C.ar    1  UNL1        0.0000
     19 C          -0.3951   -0.6415   -0.1748 C.ar    1  UNL1        0.0000
     20 C           0.3369    0.4818   -0.8291 C.ar    1  UNL1        0.0000
     21 C          -0.1628    1.3381   -1.7468 C.2     1  UNL1        0.0000
     22 C           3.9539   -0.3579    0.3728 C.ar    1  UNL1        0.0000
     23 C           4.7285    0.5660    1.0482 C.ar    1  UNL1        0.0000
     24 C           6.0694    0.1117    1.0179 C.ar    1  UNL1        0.0000
     25 C           6.0846   -1.0713    0.3148 C.ar    1  UNL1        0.0000
     26 N           4.7998   -1.3459   -0.0785 N.ar    1  UNL1        0.0000
     27 H           1.3702    2.4509   -3.7977 H       1  UNL1        0.0000
     28 H           0.8675    3.9273   -1.8280 H       1  UNL1        0.0000
     29 H           3.4213    1.8722   -1.3816 H       1  UNL1        0.0000
     30 H           2.3714   -2.3435    0.9818 H       1  UNL1        0.0000
     31 H          -1.6562   -4.1482    0.6280 H       1  UNL1        0.0000
     32 H          -3.9567   -3.4778    0.2208 H       1  UNL1        0.0000
     33 H          -5.6331   -1.7515   -0.1287 H       1  UNL1        0.0000
     34 H          -6.2688    0.5739   -0.2676 H       1  UNL1        0.0000
     35 H          -5.7023    2.9612   -0.1346 H       1  UNL1        0.0000
     36 H          -3.3412    3.6483    0.2033 H       1  UNL1        0.0000
     37 H          -1.5819    1.9760    0.3427 H       1  UNL1        0.0000
     38 H          -1.1644    1.3761   -2.1442 H       1  UNL1        0.0000
     39 H           4.3613    1.4699    1.5171 H       1  UNL1        0.0000
     40 H           6.9298    0.5978    1.4589 H       1  UNL1        0.0000
     41 H           6.8955   -1.7392    0.0577 H       1  UNL1        0.0000
     42 H           4.5145   -2.1482   -0.6249 H       1  UNL1        0.0000
@<TRIPOS>BOND
     1     1     2    1
     2     2     3    2
     3     3     4   ar
     4     4     5   ar
     5     5     6   ar
     6     6     7   ar
     7     7     8   ar
     8     8     9   ar
     9     9    10   ar
    10    10    11   ar
    11    11    12   ar
    12    12    13   ar
    13    13    14   ar
    14    14    15   ar
    15    15    16   ar
    16    16    17   ar
    17    17    18   ar
    18    18    19   ar
    19    19    20   ar
    20    20    21    2
    21     4    22    1
    22    22    23   ar
    23    23    24   ar
    24    24    25   ar
    25    25    26   ar
    26    21     1    1
    27    26    22   ar
    28    20     3   ar
    29    19     6   ar
    30    18     9   ar
    31    17    12   ar
    32     1    27    1
    33     1    28    1
    34     2    29    1
    35     5    30    1
    36     8    31    1
    37    10    32    1
    38    11    33    1
    39    13    34    1
    40    14    35    1
    41    15    36    1
    42    16    37    1
    43    21    38    1
    44    23    39    1
    45    24    40    1
    46    25    41    1
    47    26    42    1
