@<TRIPOS>MOLECULE
*****
 39 44 0 0 0
SMALL
GASTEIGER

@<TRIPOS>ATOM
      1 C           3.6367   -1.7439    0.9215 C.3     1  UNL1       -0.0086
      2 C           5.0414   -1.8640    0.3980 C.2     1  UNL1       -0.0797
      3 C           5.1773   -1.1307   -0.7166 C.2     1  UNL1       -0.0651
      4 C           3.9266   -0.4850   -1.0226 C.2     1  UNL1       -0.0580
      5 C           3.0214   -0.8120   -0.0857 C.2     1  UNL1       -0.0359
      6 C           1.6182   -0.3977   -0.0351 C.ar    1  UNL1       -0.0132
      7 C           0.6788   -1.3681   -0.3618 C.ar    1  UNL1       -0.0438
      8 C          -0.6930   -1.0718   -0.3710 C.ar    1  UNL1        0.0135
      9 C          -1.5925   -2.1286   -0.7208 C.ar    1  UNL1        0.1083
     10 N          -1.2676   -3.3961   -1.0413 N.ar    1  UNL1       -0.1901
     11 S          -2.6797   -4.1956   -1.3591 S.2     1  UNL1        0.1165
     12 N          -3.7683   -2.9766   -1.1027 N.ar    1  UNL1       -0.1901
     13 C          -3.0589   -1.8852   -0.7566 C.ar    1  UNL1        0.1096
     14 C          -3.5786   -0.5981   -0.4428 C.ar    1  UNL1        0.0292
     15 C          -4.9729   -0.3752   -0.4798 C.ar    1  UNL1       -0.0490
     16 C          -5.4672    0.8759   -0.1738 C.ar    1  UNL1       -0.0429
     17 C          -4.5488    1.8433    0.1542 C.ar    1  UNL1        0.0283
     18 N          -3.2082    1.6372    0.1922 N.ar    1  UNL1       -0.2543
     19 C          -2.6598    0.4369   -0.0964 C.ar    1  UNL1        0.0814
     20 C          -1.2127    0.2231   -0.0534 C.ar    1  UNL1        0.0180
     21 C          -0.2042    1.2304    0.2944 C.ar    1  UNL1       -0.0075
     22 C          -0.5099    2.5751    0.6472 C.ar    1  UNL1       -0.0534
     23 C           0.4493    3.5340    0.9903 C.ar    1  UNL1       -0.0611
     24 C           1.7830    3.1914    1.0015 C.ar    1  UNL1       -0.0611
     25 C           2.1452    1.8936    0.6634 C.ar    1  UNL1       -0.0534
     26 C           1.1939    0.9051    0.3022 C.ar    1  UNL1       -0.0098
     27 H           3.6317   -1.3104    1.9264 H       1  UNL1        0.0356
     28 H           3.1433   -2.7206    0.9343 H       1  UNL1        0.0356
     29 H           5.8162   -2.4573    0.8595 H       1  UNL1        0.0575
     30 H           6.0733   -1.0287   -1.3100 H       1  UNL1        0.0615
     31 H           3.7646    0.1506   -1.8804 H       1  UNL1        0.0620
     32 H           1.0218   -2.3685   -0.6276 H       1  UNL1        0.0630
     33 H          -5.6598   -1.1755   -0.7460 H       1  UNL1        0.0625
     34 H          -6.5292    1.0881   -0.1906 H       1  UNL1        0.0633
     35 H          -4.8638    2.8522    0.4067 H       1  UNL1        0.0830
     36 H          -1.5335    2.9322    0.6699 H       1  UNL1        0.0624
     37 H           0.1375    4.5421    1.2497 H       1  UNL1        0.0618
     38 H           2.5404    3.9214    1.2709 H       1  UNL1        0.0618
     39 H           3.2075    1.6573    0.6916 H       1  UNL1        0.0624
@<TRIPOS>BOND
     1     1     2    1
     2     2     3    2
     3     3     4    1
     4     4     5    2
     5     5     6    1
     6     6     7   ar
     7     7     8   ar
     8     8     9   ar
     9     9    10   ar
    10    10    11   ar
    11    11    12   ar
    12    12    13   ar
    13    13    14   ar
    14    14    15   ar
    15    15    16   ar
    16    16    17   ar
    17    17    18   ar
    18    18    19   ar
    19    19    20   ar
    20    20    21   ar
    21    21    22   ar
    22    22    23   ar
    23    23    24   ar
    24    24    25   ar
    25    25    26   ar
    26     5     1    1
    27    26     6   ar
    28    20     8   ar
    29    26    21   ar
    30    13     9   ar
    31    19    14   ar
    32     1    27    1
    33     1    28    1
    34     2    29    1
    35     3    30    1
    36     4    31    1
    37     7    32    1
    38    15    33    1
    39    16    34    1
    40    17    35    1
    41    22    36    1
    42    23    37    1
    43    24    38    1
    44    25    39    1
