@<TRIPOS>MOLECULE
*****
 38 43 0 0 0
SMALL
GASTEIGER

@<TRIPOS>ATOM
      1 C          -5.4539    0.3836   -0.8847 C.3     1  UNL1       -0.0072
      2 C          -6.7128    0.5657   -0.0828 C.2     1  UNL1       -0.0796
      3 C          -6.4103    0.6644    1.2184 C.2     1  UNL1       -0.0650
      4 C          -4.9831    0.5608    1.3874 C.2     1  UNL1       -0.0566
      5 C          -4.3942    0.3971    0.1886 C.2     1  UNL1       -0.0183
      6 C          -2.9761    0.2462   -0.1454 C.ar    1  UNL1        0.0676
      7 C          -1.9795    0.2559    0.8355 C.ar    1  UNL1       -0.0319
      8 C          -0.6692    0.1058    0.4144 C.ar    1  UNL1       -0.0304
      9 C           0.5950    0.0830    1.2899 C.3     1  UNL1        0.0009
     10 C           1.5866   -0.1050    0.1900 C.ar    1  UNL1       -0.0094
     11 C           1.0148   -0.1758   -1.0586 C.ar    1  UNL1        0.0528
     12 N           1.9566   -0.3466   -2.0211 N.ar    1  UNL1       -0.3539
     13 C           3.2037   -0.3926   -1.4029 C.ar    1  UNL1        0.0478
     14 C           4.5044   -0.5531   -1.9404 C.ar    1  UNL1       -0.0372
     15 C           5.6342   -0.5673   -1.0931 C.ar    1  UNL1       -0.0515
     16 C           5.3298   -0.4128    0.2609 C.ar    1  UNL1       -0.0102
     17 C           6.3011   -0.4015    1.2364 C.ar    1  UNL1       -0.0166
     18 S           5.6253   -0.1945    2.8165 S.2     1  UNL1       -0.1039
     19 C           4.0134   -0.1170    2.2053 C.ar    1  UNL1       -0.0160
     20 C           4.0548   -0.2496    0.8495 C.ar    1  UNL1       -0.0014
     21 C           2.9435   -0.2408   -0.0393 C.ar    1  UNL1        0.0120
     22 C          -0.3977   -0.0480   -0.9618 C.ar    1  UNL1        0.0202
     23 C          -1.4196   -0.0486   -1.8694 C.ar    1  UNL1        0.0376
     24 N          -2.7089    0.0967   -1.4796 N.ar    1  UNL1       -0.2546
     25 H          -5.4767   -0.5698   -1.4224 H       1  UNL1        0.0356
     26 H          -5.3274    1.2097   -1.5921 H       1  UNL1        0.0356
     27 H          -7.7046    0.6085   -0.5063 H       1  UNL1        0.0575
     28 H          -7.1107    0.8004    2.0285 H       1  UNL1        0.0615
     29 H          -4.5045    0.6127    2.3527 H       1  UNL1        0.0621
     30 H          -2.2090    0.3752    1.8863 H       1  UNL1        0.0642
     31 H           0.7300    1.0359    1.8073 H       1  UNL1        0.0362
     32 H           0.5787   -0.7651    1.9787 H       1  UNL1        0.0362
     33 H           1.7985   -0.4281   -3.0157 H       1  UNL1        0.1659
     34 H           4.6415   -0.6668   -3.0132 H       1  UNL1        0.0638
     35 H           6.6376   -0.6887   -1.4828 H       1  UNL1        0.0624
     36 H           7.3722   -0.5018    1.1283 H       1  UNL1        0.0699
     37 H           3.1735    0.0169    2.8705 H       1  UNL1        0.0700
     38 H          -1.2570   -0.1636   -2.9336 H       1  UNL1        0.0836
@<TRIPOS>BOND
     1     1     2    1
     2     2     3    2
     3     3     4    1
     4     4     5    2
     5     5     6    1
     6     6     7   ar
     7     7     8   ar
     8     8     9    1
     9     9    10    1
    10    10    11   ar
    11    11    12   ar
    12    12    13   ar
    13    13    14   ar
    14    14    15   ar
    15    15    16   ar
    16    16    17   ar
    17    17    18   ar
    18    18    19   ar
    19    19    20   ar
    20    20    21   ar
    21    11    22    1
    22    22    23   ar
    23    23    24   ar
    24     5     1    1
    25    24     6   ar
    26    22     8   ar
    27    21    10   ar
    28    21    13   ar
    29    20    16   ar
    30     1    25    1
    31     1    26    1
    32     2    27    1
    33     3    28    1
    34     4    29    1
    35     7    30    1
    36     9    31    1
    37     9    32    1
    38    12    33    1
    39    14    34    1
    40    15    35    1
    41    17    36    1
    42    19    37    1
    43    23    38    1
