@<TRIPOS>MOLECULE
*****
 35 40 0 0 0
SMALL
GASTEIGER

@<TRIPOS>ATOM
      1 C           5.0990   -1.2203    0.2796 C.3     1  UNL1       -0.0057
      2 C           6.3673   -0.4240    0.1702 C.2     1  UNL1       -0.0796
      3 C           6.0714    0.8688   -0.0178 C.2     1  UNL1       -0.0650
      4 C           4.6404    1.0318   -0.0477 C.2     1  UNL1       -0.0551
      5 C           4.0361   -0.1584    0.1215 C.2     1  UNL1       -0.0014
      6 C           2.6215   -0.2840    0.1334 C.ar    1  UNL1        0.1326
      7 C           1.8507   -1.4305    0.2956 C.ar    1  UNL1       -0.0084
      8 C           0.4826   -1.0602    0.2361 C.ar    1  UNL1        0.0214
      9 C          -0.7449   -1.7377    0.3286 C.ar    1  UNL1       -0.0411
     10 C          -1.9408   -0.9879    0.2151 C.ar    1  UNL1        0.0131
     11 C          -3.2365   -1.5970    0.2974 C.ar    1  UNL1        0.1083
     12 N          -3.5067   -2.9085    0.4856 N.ar    1  UNL1       -0.1901
     13 S          -5.1744   -3.0662    0.5011 S.2     1  UNL1        0.1165
     14 N          -5.6409   -1.4739    0.2691 N.ar    1  UNL1       -0.1901
     15 C          -4.4768   -0.8485    0.1839 C.ar    1  UNL1        0.1096
     16 C          -4.3689    0.5595   -0.0190 C.ar    1  UNL1        0.0284
     17 C          -5.3990    1.4921   -0.1582 C.ar    1  UNL1       -0.0345
     18 C          -4.7593    2.7014   -0.3301 C.ar    1  UNL1        0.0028
     19 N          -3.3973    2.4883   -0.2933 N.ar    1  UNL1       -0.3601
     20 C          -3.1201    1.1462   -0.0983 C.ar    1  UNL1        0.0566
     21 C          -1.9002    0.4242    0.0113 C.ar    1  UNL1        0.0117
     22 C          -0.6656    1.0971   -0.0805 C.ar    1  UNL1       -0.0090
     23 C           0.4803    0.3100    0.0382 C.ar    1  UNL1        0.1363
     24 O           1.7539    0.7771   -0.0236 O.2     1  UNL1       -0.4551
     25 H           5.0300   -1.7117    1.2552 H       1  UNL1        0.0357
     26 H           5.0378   -1.9677   -0.5176 H       1  UNL1        0.0357
     27 H           7.3611   -0.8403    0.2348 H       1  UNL1        0.0575
     28 H           6.7767    1.6782   -0.1316 H       1  UNL1        0.0615
     29 H           4.1528    1.9860   -0.1876 H       1  UNL1        0.0621
     30 H           2.2392   -2.4288    0.4415 H       1  UNL1        0.0661
     31 H          -0.7744   -2.8129    0.4837 H       1  UNL1        0.0631
     32 H          -6.4677    1.3221   -0.1383 H       1  UNL1        0.0639
     33 H          -5.1520    3.6992   -0.4759 H       1  UNL1        0.0807
     34 H          -2.6993    3.2123   -0.3948 H       1  UNL1        0.1654
     35 H          -0.5762    2.1642   -0.2342 H       1  UNL1        0.0661
@<TRIPOS>BOND
     1     1     2    1
     2     2     3    2
     3     3     4    1
     4     4     5    2
     5     5     6    1
     6     6     7   ar
     7     7     8   ar
     8     8     9   ar
     9     9    10   ar
    10    10    11   ar
    11    11    12   ar
    12    12    13   ar
    13    13    14   ar
    14    14    15   ar
    15    15    16   ar
    16    16    17   ar
    17    17    18   ar
    18    18    19   ar
    19    19    20   ar
    20    20    21   ar
    21    21    22   ar
    22    22    23   ar
    23    23    24   ar
    24     5     1    1
    25    24     6   ar
    26    23     8   ar
    27    21    10   ar
    28    15    11   ar
    29    20    16   ar
    30     1    25    1
    31     1    26    1
    32     2    27    1
    33     3    28    1
    34     4    29    1
    35     7    30    1
    36     9    31    1
    37    17    32    1
    38    18    33    1
    39    19    34    1
    40    22    35    1
