@<TRIPOS>MOLECULE
*****
 41 47 0 0 0
SMALL
GASTEIGER

@<TRIPOS>ATOM
      1 C           4.7163   -1.1123   -1.3822 C.3     1  UNL1       -0.0072
      2 C           6.2149   -1.0575   -1.3742 C.2     1  UNL1       -0.0796
      3 C           6.6283   -0.2716   -0.3725 C.2     1  UNL1       -0.0650
      4 C           5.4842    0.2390    0.3385 C.2     1  UNL1       -0.0566
      5 C           4.3451   -0.2221   -0.2120 C.2     1  UNL1       -0.0203
      6 C           3.0747    0.1325    0.3056 C.ar    1  UNL1        0.0438
      7 C           2.6343    0.9240    1.3426 C.ar    1  UNL1       -0.0290
      8 C           1.2134    0.9017    1.3407 C.ar    1  UNL1        0.0009
      9 C           0.2519    1.5445    2.1236 C.ar    1  UNL1       -0.0520
     10 C          -1.1082    1.3454    1.8470 C.ar    1  UNL1       -0.0527
     11 C          -1.5963    0.4907    0.8346 C.ar    1  UNL1       -0.0054
     12 C          -0.5846   -0.2211    0.0916 C.ar    1  UNL1        0.0149
     13 C          -1.1143   -1.1390   -0.8440 C.ar    1  UNL1       -0.0006
     14 C          -0.3764   -2.0598   -1.5567 C.ar    1  UNL1       -0.0159
     15 S          -1.3267   -3.0035   -2.6237 S.2     1  UNL1       -0.1038
     16 C          -2.7642   -2.2551   -2.0834 C.ar    1  UNL1       -0.0160
     17 C          -2.5315   -1.3021   -1.1128 C.ar    1  UNL1       -0.0024
     18 C          -3.5723   -0.5833   -0.4646 C.ar    1  UNL1       -0.0069
     19 C          -4.9636   -0.7694   -0.7812 C.ar    1  UNL1       -0.0513
     20 C          -5.9975   -0.0867   -0.1429 C.ar    1  UNL1       -0.0329
     21 C          -5.5983    0.8185    0.8543 C.ar    1  UNL1        0.1005
     22 N          -6.4538    1.5628    1.5719 N.ar    1  UNL1       -0.1908
     23 S          -5.5384    2.4694    2.6047 S.2     1  UNL1        0.1165
     24 N          -4.0261    1.9586    2.1889 N.ar    1  UNL1       -0.1901
     25 C          -4.1379    1.0380    1.2118 C.ar    1  UNL1        0.1081
     26 C          -3.0506    0.3237    0.5458 C.ar    1  UNL1        0.0187
     27 C           0.7914    0.0413    0.3270 C.ar    1  UNL1        0.0553
     28 N           1.9495   -0.3602   -0.3108 N.ar    1  UNL1       -0.3539
     29 H           4.3174   -0.7190   -2.3226 H       1  UNL1        0.0356
     30 H           4.3629   -2.1370   -1.2292 H       1  UNL1        0.0356
     31 H           6.8536   -1.5757   -2.0731 H       1  UNL1        0.0575
     32 H           7.6521   -0.0422   -0.1180 H       1  UNL1        0.0615
     33 H           5.5736    0.8971    1.1902 H       1  UNL1        0.0621
     34 H           3.2602    1.4848    2.0239 H       1  UNL1        0.0645
     35 H           0.5481    2.2167    2.9241 H       1  UNL1        0.0624
     36 H          -1.7844    1.9023    2.4873 H       1  UNL1        0.0624
     37 H           0.6731   -2.2906   -1.5288 H       1  UNL1        0.0700
     38 H          -3.6957   -2.5918   -2.5132 H       1  UNL1        0.0700
     39 H          -5.2606   -1.4741   -1.5558 H       1  UNL1        0.0624
     40 H          -7.0399   -0.2392   -0.3942 H       1  UNL1        0.0640
     41 H           1.9764   -0.9004   -1.1582 H       1  UNL1        0.1659
@<TRIPOS>BOND
     1     1     2    1
     2     2     3    2
     3     3     4    1
     4     4     5    2
     5     5     6    1
     6     6     7   ar
     7     7     8   ar
     8     8     9   ar
     9     9    10   ar
    10    10    11   ar
    11    11    12   ar
    12    12    13   ar
    13    13    14   ar
    14    14    15   ar
    15    15    16   ar
    16    16    17   ar
    17    17    18   ar
    18    18    19   ar
    19    19    20   ar
    20    20    21   ar
    21    21    22   ar
    22    22    23   ar
    23    23    24   ar
    24    24    25   ar
    25    25    26   ar
    26    12    27   ar
    27    27    28   ar
    28     5     1    1
    29    28     6   ar
    30    27     8   ar
    31    26    11   ar
    32    17    13   ar
    33    26    18   ar
    34    25    21   ar
    35     1    29    1
    36     1    30    1
    37     2    31    1
    38     3    32    1
    39     4    33    1
    40     7    34    1
    41     9    35    1
    42    10    36    1
    43    14    37    1
    44    16    38    1
    45    19    39    1
    46    20    40    1
    47    28    41    1
