@<TRIPOS>MOLECULE
*****
 40 46 0 0 0
SMALL
GASTEIGER

@<TRIPOS>ATOM
      1 C           5.2699   -0.8267   -0.1676 C.3     1  UNL1       -0.0086
      2 C           6.5750   -0.1009   -0.0015 C.2     1  UNL1       -0.0797
      3 C           6.3427    1.1729    0.3358 C.2     1  UNL1       -0.0651
      4 C           4.9220    1.3933    0.4131 C.2     1  UNL1       -0.0579
      5 C           4.2562    0.2589    0.1204 C.2     1  UNL1       -0.0344
      6 C           2.7994    0.0737    0.0805 C.ar    1  UNL1        0.0072
      7 C           1.8813    1.1328    0.2152 C.ar    1  UNL1       -0.0444
      8 C           0.4660    1.0122    0.1903 C.ar    1  UNL1       -0.0145
      9 C          -0.2574    2.2026    0.3040 C.ar    1  UNL1       -0.0532
     10 C          -1.6473    2.2302    0.2751 C.ar    1  UNL1       -0.0499
     11 C          -2.3755    1.0422    0.1690 C.ar    1  UNL1        0.0263
     12 C          -3.7915    1.1897    0.1583 C.ar    1  UNL1        0.1432
     13 O          -4.5290    2.3510    0.2121 O.2     1  UNL1       -0.4623
     14 C          -5.8498    1.9933    0.1780 C.ar    1  UNL1        0.0932
     15 C          -6.0003    0.6221    0.1080 C.ar    1  UNL1       -0.0154
     16 C          -4.6922    0.1571    0.0954 C.ar    1  UNL1        0.0314
     17 C          -4.1353   -1.1276    0.0602 C.ar    1  UNL1        0.0312
     18 C          -4.7690   -2.3262    0.0483 C.ar    1  UNL1        0.1001
     19 O          -3.7976   -3.2848    0.0769 O.2     1  UNL1       -0.4698
     20 C          -2.5816   -2.6415    0.1019 C.ar    1  UNL1        0.1000
     21 C          -2.7262   -1.2698    0.0616 C.ar    1  UNL1        0.0290
     22 C          -1.7138   -0.2358    0.0841 C.ar    1  UNL1        0.0062
     23 C          -0.2400   -0.2316    0.0482 C.ar    1  UNL1        0.0188
     24 C           0.6678   -1.3485   -0.1523 C.ar    1  UNL1        0.1087
     25 N           0.3185   -2.6187   -0.4093 N.ar    1  UNL1       -0.1901
     26 S           1.6854   -3.5215   -0.5565 S.2     1  UNL1        0.1165
     27 N           2.8268   -2.3605   -0.3231 N.ar    1  UNL1       -0.1902
     28 C           2.1894   -1.1912   -0.1277 C.ar    1  UNL1        0.1079
     29 H           5.1796   -1.2085   -1.1894 H       1  UNL1        0.0356
     30 H           5.2122   -1.6458    0.5561 H       1  UNL1        0.0356
     31 H           7.5460   -0.5533   -0.1334 H       1  UNL1        0.0575
     32 H           7.0881    1.9309    0.5230 H       1  UNL1        0.0615
     33 H           4.5073    2.3548    0.6734 H       1  UNL1        0.0620
     34 H           2.2932    2.1362    0.3405 H       1  UNL1        0.0630
     35 H           0.2575    3.1585    0.4039 H       1  UNL1        0.0624
     36 H          -2.1521    3.1925    0.3492 H       1  UNL1        0.0625
     37 H          -6.5479    2.8185    0.2141 H       1  UNL1        0.1030
     38 H          -6.9309    0.0754    0.0763 H       1  UNL1        0.0655
     39 H          -5.7905   -2.6766    0.0423 H       1  UNL1        0.1036
     40 H          -1.7564   -3.3292    0.1677 H       1  UNL1        0.1036
@<TRIPOS>BOND
     1     1     2    1
     2     2     3    2
     3     3     4    1
     4     4     5    2
     5     5     6    1
     6     6     7   ar
     7     7     8   ar
     8     8     9   ar
     9     9    10   ar
    10    10    11   ar
    11    11    12   ar
    12    12    13   ar
    13    13    14   ar
    14    14    15   ar
    15    15    16   ar
    16    16    17   ar
    17    17    18   ar
    18    18    19   ar
    19    19    20   ar
    20    20    21   ar
    21    21    22   ar
    22    22    23   ar
    23    23    24   ar
    24    24    25   ar
    25    25    26   ar
    26    26    27   ar
    27    27    28   ar
    28     5     1    1
    29    28     6   ar
    30    23     8   ar
    31    28    24   ar
    32    22    11   ar
    33    16    12   ar
    34    21    17   ar
    35     1    29    1
    36     1    30    1
    37     2    31    1
    38     3    32    1
    39     4    33    1
    40     7    34    1
    41     9    35    1
    42    10    36    1
    43    14    37    1
    44    15    38    1
    45    18    39    1
    46    20    40    1
