@<TRIPOS>MOLECULE
*****
 47 53 0 0 0
SMALL
GASTEIGER

@<TRIPOS>ATOM
      1 C           5.2564   -0.3883    1.7680 C.3     1  UNL1       -0.0086
      2 C           6.6263   -0.9448    1.4937 C.2     1  UNL1       -0.0797
      3 C           6.6814   -1.4264    0.2430 C.2     1  UNL1       -0.0651
      4 C           5.4054   -1.2426   -0.3998 C.2     1  UNL1       -0.0580
      5 C           4.5660   -0.6380    0.4564 C.2     1  UNL1       -0.0359
      6 C           3.1672   -0.2861    0.2140 C.ar    1  UNL1       -0.0132
      7 C           2.2058   -1.1333    0.7806 C.ar    1  UNL1       -0.0444
      8 C           0.8411   -0.9033    0.5988 C.ar    1  UNL1        0.0049
      9 C          -0.1089   -1.7596    1.1690 C.ar    1  UNL1        0.0362
     10 N          -1.4505   -1.6505    1.0706 N.ar    1  UNL1       -0.2505
     11 C          -1.8701   -0.5908    0.3348 C.ar    1  UNL1        0.1178
     12 C          -0.9929    0.3078   -0.2672 C.ar    1  UNL1        0.1627
     13 O          -1.7150    1.2569   -0.9321 O.2     1  UNL1       -0.4526
     14 C          -3.0322    0.9709   -0.7589 C.ar    1  UNL1        0.1384
     15 C          -4.0786    1.7187   -1.2912 C.ar    1  UNL1       -0.0181
     16 C          -5.3751    1.2764   -1.0101 C.ar    1  UNL1       -0.0505
     17 C          -5.6122    0.1339   -0.2292 C.ar    1  UNL1       -0.0170
     18 C          -6.9183   -0.2997    0.0457 C.ar    1  UNL1       -0.0540
     19 C          -7.1472   -1.4378    0.8236 C.ar    1  UNL1       -0.0612
     20 C          -6.0754   -2.1621    1.3401 C.ar    1  UNL1       -0.0611
     21 C          -4.7672   -1.7533    1.0823 C.ar    1  UNL1       -0.0533
     22 C          -4.5211   -0.6070    0.2991 C.ar    1  UNL1       -0.0051
     23 C          -3.1954   -0.1676    0.0206 C.ar    1  UNL1        0.0539
     24 C           0.4232    0.2066   -0.1724 C.ar    1  UNL1        0.0357
     25 C           1.3924    1.0967   -0.7672 C.ar    1  UNL1       -0.0060
     26 C           1.0522    2.2297   -1.5506 C.ar    1  UNL1       -0.0533
     27 C           2.0128    3.0761   -2.1073 C.ar    1  UNL1       -0.0611
     28 C           3.3546    2.8198   -1.8979 C.ar    1  UNL1       -0.0611
     29 C           3.7286    1.7160   -1.1352 C.ar    1  UNL1       -0.0534
     30 C           2.7768    0.8360   -0.5625 C.ar    1  UNL1       -0.0098
     31 H           4.7771   -0.9254    2.5923 H       1  UNL1        0.0356
     32 H           5.3092    0.6801    1.9994 H       1  UNL1        0.0356
     33 H           7.4375   -0.9495    2.2059 H       1  UNL1        0.0575
     34 H           7.5372   -1.8854   -0.2285 H       1  UNL1        0.0615
     35 H           5.1827   -1.5536   -1.4096 H       1  UNL1        0.0620
     36 H           2.5364   -1.9920    1.3646 H       1  UNL1        0.0630
     37 H           0.2101   -2.6161    1.7619 H       1  UNL1        0.0836
     38 H          -3.8925    2.5999   -1.8935 H       1  UNL1        0.0655
     39 H          -6.2127    1.8428   -1.4141 H       1  UNL1        0.0625
     40 H          -7.7739    0.2470   -0.3451 H       1  UNL1        0.0624
     41 H          -8.1658   -1.7591    1.0263 H       1  UNL1        0.0618
     42 H          -6.2563   -3.0470    1.9447 H       1  UNL1        0.0618
     43 H          -3.9435   -2.3320    1.4943 H       1  UNL1        0.0624
     44 H           0.0144    2.4822   -1.7464 H       1  UNL1        0.0624
     45 H           1.7036    3.9327   -2.7002 H       1  UNL1        0.0618
     46 H           4.1124    3.4722   -2.3227 H       1  UNL1        0.0618
     47 H           4.7941    1.5491   -0.9878 H       1  UNL1        0.0624
@<TRIPOS>BOND
     1     1     2    1
     2     2     3    2
     3     3     4    1
     4     4     5    2
     5     5     6    1
     6     6     7   ar
     7     7     8   ar
     8     8     9   ar
     9     9    10   ar
    10    10    11   ar
    11    11    12   ar
    12    12    13   ar
    13    13    14   ar
    14    14    15   ar
    15    15    16   ar
    16    16    17   ar
    17    17    18   ar
    18    18    19   ar
    19    19    20   ar
    20    20    21   ar
    21    21    22   ar
    22    22    23   ar
    23    12    24   ar
    24    24    25   ar
    25    25    26   ar
    26    26    27   ar
    27    27    28   ar
    28    28    29   ar
    29    29    30   ar
    30     5     1    1
    31    30     6   ar
    32    24     8   ar
    33    30    25   ar
    34    23    11   ar
    35    23    14   ar
    36    22    17   ar
    37     1    31    1
    38     1    32    1
    39     2    33    1
    40     3    34    1
    41     4    35    1
    42     7    36    1
    43     9    37    1
    44    15    38    1
    45    16    39    1
    46    18    40    1
    47    19    41    1
    48    20    42    1
    49    21    43    1
    50    26    44    1
    51    27    45    1
    52    28    46    1
    53    29    47    1
