@<TRIPOS>MOLECULE
*****
 45 51 0 0 0
SMALL
GASTEIGER

@<TRIPOS>ATOM
      1 C          -5.8227    0.5684    0.0765 C.3     1  UNL1       -0.0086
      2 C          -6.8396    1.5496    0.5853 C.2     1  UNL1       -0.0797
      3 C          -6.2172    2.5490    1.2200 C.2     1  UNL1       -0.0651
      4 C          -4.7964    2.3216    1.1809 C.2     1  UNL1       -0.0580
      5 C          -4.5178    1.1803    0.5190 C.2     1  UNL1       -0.0358
      6 C          -3.1820    0.6320    0.2765 C.ar    1  UNL1       -0.0104
      7 C          -1.9798    1.2963    0.6390 C.ar    1  UNL1       -0.0277
      8 C          -0.6486    0.8402    0.4506 C.ar    1  UNL1        0.0728
      9 N           0.2929    1.6752    0.8782 N.ar    1  UNL1       -0.2543
     10 C           1.5939    1.3308    0.7218 C.ar    1  UNL1        0.0366
     11 C           2.0936    0.1544    0.1570 C.ar    1  UNL1        0.0091
     12 C           1.1024   -0.7854   -0.2079 C.ar    1  UNL1       -0.0060
     13 C           1.5591   -2.0639   -0.5798 C.ar    1  UNL1       -0.0527
     14 C           2.9131   -2.4078   -0.6361 C.ar    1  UNL1       -0.0534
     15 C           3.9136   -1.4839   -0.3649 C.ar    1  UNL1       -0.0166
     16 C           5.2738   -1.9387   -0.4634 C.ar    1  UNL1       -0.0534
     17 C           6.4105   -1.1430   -0.2495 C.ar    1  UNL1       -0.0529
     18 C           6.0562    0.1680    0.0263 C.ar    1  UNL1       -0.0103
     19 C           7.0200    1.1302    0.2048 C.ar    1  UNL1       -0.0166
     20 S           6.3172    2.6718    0.4362 S.2     1  UNL1       -0.1039
     21 C           4.7240    2.0378    0.2861 C.ar    1  UNL1       -0.0160
     22 C           4.7001    0.6681    0.1381 C.ar    1  UNL1       -0.0025
     23 C           3.5153   -0.1512   -0.0023 C.ar    1  UNL1       -0.0005
     24 C          -0.3055   -0.4142   -0.1348 C.ar    1  UNL1        0.0173
     25 C          -1.5134   -1.0741   -0.5528 C.ar    1  UNL1        0.0097
     26 C          -1.6252   -2.2366   -1.2816 C.ar    1  UNL1        0.0101
     27 N          -2.9617   -2.5012   -1.4620 N.ar    1  UNL1       -0.3659
     28 C          -3.7176   -1.4991   -0.9053 C.ar    1  UNL1        0.0100
     29 C          -2.8599   -0.5767   -0.3523 C.ar    1  UNL1        0.0075
     30 H          -5.8901    0.4962   -1.0135 H       1  UNL1        0.0356
     31 H          -5.9942   -0.4073    0.5415 H       1  UNL1        0.0356
     32 H          -7.9063    1.4517    0.4550 H       1  UNL1        0.0575
     33 H          -6.6845    3.3999    1.6917 H       1  UNL1        0.0615
     34 H          -4.0971    3.0063    1.6362 H       1  UNL1        0.0620
     35 H          -2.0609    2.2744    1.1162 H       1  UNL1        0.0645
     36 H           2.2492    2.0723    1.1602 H       1  UNL1        0.0836
     37 H           0.8603   -2.8664   -0.7785 H       1  UNL1        0.0624
     38 H           3.1642   -3.4325   -0.9076 H       1  UNL1        0.0624
     39 H           5.4563   -2.9833   -0.7260 H       1  UNL1        0.0624
     40 H           7.4195   -1.5229   -0.3363 H       1  UNL1        0.0624
     41 H           8.0962    1.0240    0.1895 H       1  UNL1        0.0699
     42 H           3.9228    2.7572    0.2969 H       1  UNL1        0.0700
     43 H          -0.9096   -2.9109   -1.7229 H       1  UNL1        0.0813
     44 H          -3.3336   -3.2994   -1.9612 H       1  UNL1        0.1648
     45 H          -4.7907   -1.5574   -0.9907 H       1  UNL1        0.0813
@<TRIPOS>BOND
     1     1     2    1
     2     2     3    2
     3     3     4    1
     4     4     5    2
     5     5     6    1
     6     6     7   ar
     7     7     8   ar
     8     8     9   ar
     9     9    10   ar
    10    10    11   ar
    11    11    12   ar
    12    12    13   ar
    13    13    14   ar
    14    14    15   ar
    15    15    16   ar
    16    16    17   ar
    17    17    18   ar
    18    18    19   ar
    19    19    20   ar
    20    20    21   ar
    21    21    22   ar
    22    22    23   ar
    23    12    24   ar
    24    24    25   ar
    25    25    26   ar
    26    26    27   ar
    27    27    28   ar
    28    28    29   ar
    29     5     1    1
    30    29     6   ar
    31    24     8   ar
    32    29    25   ar
    33    23    11   ar
    34    23    15   ar
    35    22    18   ar
    36     1    30    1
    37     1    31    1
    38     2    32    1
    39     3    33    1
    40     4    34    1
    41     7    35    1
    42    10    36    1
    43    13    37    1
    44    14    38    1
    45    16    39    1
    46    17    40    1
    47    19    41    1
    48    21    42    1
    49    26    43    1
    50    27    44    1
    51    28    45    1
