@<TRIPOS>MOLECULE
*****
 43 49 0 0 0
SMALL
GASTEIGER

@<TRIPOS>ATOM
      1 C           5.4847    1.0773    0.0560 C.3     1  UNL1        0.0000
      2 C           6.9027    0.5951    0.1427 C.2     1  UNL1        0.0000
      3 C           6.9150   -0.7330    0.3070 C.2     1  UNL1        0.0000
      4 C           5.5611   -1.2228    0.3445 C.2     1  UNL1        0.0000
      5 C           4.6920   -0.2038    0.2094 C.2     1  UNL1        0.0000
      6 C           3.2240   -0.2242    0.1884 C.ar    1  UNL1        0.0000
      7 C           2.4534    0.9045   -0.1577 C.ar    1  UNL1        0.0000
      8 C           1.0552    0.9710   -0.2111 C.ar    1  UNL1        0.0000
      9 N           0.5736    2.1791   -0.4936 N.ar    1  UNL1        0.0000
     10 C          -0.7663    2.3649   -0.4811 C.ar    1  UNL1        0.0000
     11 C          -1.7110    1.3642   -0.2995 C.ar    1  UNL1        0.0000
     12 C          -3.1533    1.6892   -0.1936 C.ar    1  UNL1        0.0000
     13 N          -3.4681    3.0152   -0.2008 N.ar    1  UNL1        0.0000
     14 C          -4.7620    3.3573   -0.0249 C.ar    1  UNL1        0.0000
     15 C          -5.7781    2.4412    0.1668 C.ar    1  UNL1        0.0000
     16 C          -5.4533    1.0885    0.1663 C.ar    1  UNL1        0.0000
     17 C          -4.1254    0.6901   -0.0225 C.ar    1  UNL1        0.0000
     18 C          -3.6849   -0.7123   -0.1017 C.ar    1  UNL1        0.0000
     19 C          -4.5158   -1.7711   -0.2104 C.2     1  UNL1        0.0000
     20 SI         -3.5768   -3.3370   -0.5999 Si      1  UNL1        0.0000
     21 C          -2.0252   -2.3049   -0.6314 C.2     1  UNL1        0.0000
     22 C          -2.2413   -1.0299   -0.2450 C.ar    1  UNL1        0.0000
     23 C          -1.2116    0.0474   -0.1580 C.ar    1  UNL1        0.0000
     24 C           0.2040   -0.1420    0.0291 C.ar    1  UNL1        0.0000
     25 C           0.9257   -1.3100    0.5078 C.ar    1  UNL1        0.0000
     26 N           0.3827   -2.4383    1.0009 N.ar    1  UNL1        0.0000
     27 S           1.6053   -3.4609    1.4133 S.2     1  UNL1        0.0000
     28 N           2.9077   -2.5317    1.0254 N.ar    1  UNL1        0.0000
     29 C           2.4494   -1.3512    0.5706 C.ar    1  UNL1        0.0000
     30 H           5.3070    1.5522   -0.9144 H       1  UNL1        0.0000
     31 H           5.2689    1.7837    0.8642 H       1  UNL1        0.0000
     32 H           7.7726    1.2308    0.0798 H       1  UNL1        0.0000
     33 H           7.7888   -1.3598    0.4010 H       1  UNL1        0.0000
     34 H           5.3343   -2.2715    0.4625 H       1  UNL1        0.0000
     35 H           2.9758    1.8311   -0.4057 H       1  UNL1        0.0000
     36 H          -1.0675    3.4010   -0.6264 H       1  UNL1        0.0000
     37 H          -4.9650    4.4246   -0.0375 H       1  UNL1        0.0000
     38 H          -6.8015    2.7705    0.3088 H       1  UNL1        0.0000
     39 H          -6.2445    0.3596    0.3109 H       1  UNL1        0.0000
     40 H          -5.5930   -1.7814   -0.1979 H       1  UNL1        0.0000
     41 H          -3.9289   -3.8789   -1.9343 H       1  UNL1        0.0000
     42 H          -3.6118   -4.3080    0.5198 H       1  UNL1        0.0000
     43 H          -1.0987   -2.7660   -0.9277 H       1  UNL1        0.0000
@<TRIPOS>BOND
     1     1     2    1
     2     2     3    2
     3     3     4    1
     4     4     5    2
     5     5     6    1
     6     6     7   ar
     7     7     8   ar
     8     8     9   ar
     9     9    10   ar
    10    10    11   ar
    11    11    12   ar
    12    12    13   ar
    13    13    14   ar
    14    14    15   ar
    15    15    16   ar
    16    16    17   ar
    17    17    18   ar
    18    18    19    2
    19    19    20    1
    20    20    21    1
    21    21    22    2
    22    22    23   ar
    23    23    24   ar
    24    24    25   ar
    25    25    26   ar
    26    26    27   ar
    27    27    28   ar
    28    28    29   ar
    29     5     1    1
    30    29     6   ar
    31    24     8   ar
    32    29    25   ar
    33    23    11   ar
    34    17    12   ar
    35    22    18   ar
    36     1    30    1
    37     1    31    1
    38     2    32    1
    39     3    33    1
    40     4    34    1
    41     7    35    1
    42    10    36    1
    43    14    37    1
    44    15    38    1
    45    16    39    1
    46    19    40    1
    47    20    41    1
    48    20    42    1
    49    21    43    1
