@<TRIPOS>MOLECULE
*****
 36 41 0 0 0
SMALL
GASTEIGER

@<TRIPOS>ATOM
      1 C           4.6608   -0.7526   -0.0548 C.3     1  UNL1       -0.0086
      2 C           5.8950   -0.1441   -0.6543 C.2     1  UNL1       -0.0797
      3 C           5.5562    0.9188   -1.3920 C.2     1  UNL1       -0.0651
      4 C           4.1282    1.0932   -1.3427 C.2     1  UNL1       -0.0580
      5 C           3.5614    0.1413   -0.5740 C.2     1  UNL1       -0.0357
      6 C           2.1277   -0.0006   -0.2920 C.ar    1  UNL1       -0.0073
      7 C           1.1501    0.9015   -0.8323 C.ar    1  UNL1       -0.0106
      8 C          -0.2196    0.7376   -0.5421 C.ar    1  UNL1        0.1390
      9 O          -1.2723    1.5106   -0.9785 O.2     1  UNL1       -0.4525
     10 C          -2.3881    0.9328   -0.4161 C.ar    1  UNL1        0.1629
     11 C          -3.7767    1.1586   -0.4095 C.ar    1  UNL1        0.0607
     12 C          -4.6511    2.0827   -0.9788 C.ar    1  UNL1        0.0403
     13 N          -5.9842    1.9890   -0.7446 N.ar    1  UNL1       -0.2624
     14 C          -6.4398    0.9896    0.0451 C.ar    1  UNL1        0.0295
     15 C          -5.6478    0.0246    0.6546 C.ar    1  UNL1       -0.0195
     16 C          -4.2798    0.1316    0.4063 C.ar    1  UNL1        0.0535
     17 N          -3.2315   -0.6565    0.8543 N.ar    1  UNL1       -0.3510
     18 C          -2.0709   -0.1523    0.3404 C.ar    1  UNL1        0.0947
     19 C          -0.7011   -0.2635    0.2520 C.ar    1  UNL1        0.0549
     20 C           0.1737   -1.1878    0.8214 C.ar    1  UNL1        0.0332
     21 C          -0.0298   -2.2557    1.6300 C.ar    1  UNL1        0.1002
     22 O           1.2005   -2.8030    1.8788 O.2     1  UNL1       -0.4698
     23 C           2.1379   -2.0495    1.2097 C.ar    1  UNL1        0.1000
     24 C           1.5479   -1.0101    0.5205 C.ar    1  UNL1        0.0281
     25 H           4.7280   -0.7224    1.0372 H       1  UNL1        0.0356
     26 H           4.5487   -1.7824   -0.4077 H       1  UNL1        0.0356
     27 H           6.8975   -0.5157   -0.5062 H       1  UNL1        0.0575
     28 H           6.2291    1.5574   -1.9440 H       1  UNL1        0.0615
     29 H           3.6361    1.8958   -1.8704 H       1  UNL1        0.0620
     30 H           1.4401    1.7269   -1.4738 H       1  UNL1        0.0661
     31 H          -4.3233    2.8959   -1.6160 H       1  UNL1        0.0837
     32 H          -7.5182    0.9810    0.1852 H       1  UNL1        0.0830
     33 H          -6.0733   -0.7519    1.2770 H       1  UNL1        0.0653
     34 H          -3.2860   -1.4677    1.4561 H       1  UNL1        0.1660
     35 H          -0.8718   -2.7462    2.0943 H       1  UNL1        0.1036
     36 H           3.1466   -2.4070    1.3468 H       1  UNL1        0.1036
@<TRIPOS>BOND
     1     1     2    1
     2     2     3    2
     3     3     4    1
     4     4     5    2
     5     5     6    1
     6     6     7   ar
     7     7     8   ar
     8     8     9   ar
     9     9    10   ar
    10    10    11   ar
    11    11    12   ar
    12    12    13   ar
    13    13    14   ar
    14    14    15   ar
    15    15    16   ar
    16    16    17   ar
    17    17    18   ar
    18    18    19   ar
    19    19    20   ar
    20    20    21   ar
    21    21    22   ar
    22    22    23   ar
    23    23    24   ar
    24     5     1    1
    25    24     6   ar
    26    19     8   ar
    27    24    20   ar
    28    18    10   ar
    29    16    11   ar
    30     1    25    1
    31     1    26    1
    32     2    27    1
    33     3    28    1
    34     4    29    1
    35     7    30    1
    36    12    31    1
    37    14    32    1
    38    15    33    1
    39    17    34    1
    40    21    35    1
    41    23    36    1
