@<TRIPOS>MOLECULE
*****
 44 50 0 0 0
SMALL
GASTEIGER

@<TRIPOS>ATOM
      1 C          -5.9021   -0.7682   -1.5422 C.3     1  UNL1       -0.0072
      2 C          -7.1941   -0.3780   -0.8881 C.2     1  UNL1       -0.0796
      3 C          -6.9396    0.2595    0.2607 C.2     1  UNL1       -0.0650
      4 C          -5.5140    0.3427    0.4581 C.2     1  UNL1       -0.0566
      5 C          -4.8633   -0.2420   -0.5666 C.2     1  UNL1       -0.0203
      6 C          -3.4496   -0.3329   -0.6794 C.ar    1  UNL1        0.0443
      7 C          -2.6578   -0.9111   -1.6552 C.ar    1  UNL1       -0.0223
      8 C          -1.3108   -0.6999   -1.2489 C.ar    1  UNL1        0.0386
      9 S           0.2927   -1.0481   -1.8016 S.2     1  UNL1       -0.0860
     10 C           1.0387   -0.2584   -0.4142 C.ar    1  UNL1        0.0308
     11 C          -0.0091    0.2126    0.3678 C.ar    1  UNL1        0.0229
     12 C           0.2453    0.9075    1.5767 C.ar    1  UNL1        0.0102
     13 C          -0.5742    1.4645    2.5145 C.ar    1  UNL1        0.0101
     14 N           0.2763    1.9970    3.4608 N.ar    1  UNL1       -0.3659
     15 C           1.5905    1.7655    3.1007 C.ar    1  UNL1        0.0100
     16 C           1.5952    1.0740    1.9055 C.ar    1  UNL1        0.0078
     17 C           2.7265    0.6334    1.1784 C.ar    1  UNL1       -0.0071
     18 C           4.0351    0.8717    1.6301 C.ar    1  UNL1       -0.0528
     19 C           5.1170    0.4243    0.8897 C.ar    1  UNL1       -0.0534
     20 C           4.9356   -0.2663   -0.3093 C.ar    1  UNL1       -0.0173
     21 C           6.0897   -0.6837   -0.9958 C.ar    1  UNL1       -0.0540
     22 C           6.0070   -1.3767   -2.1960 C.ar    1  UNL1       -0.0612
     23 C           4.7614   -1.6591   -2.7217 C.ar    1  UNL1       -0.0611
     24 C           3.6059   -1.2470   -2.0446 C.ar    1  UNL1       -0.0534
     25 C           3.6270   -0.5353   -0.8140 C.ar    1  UNL1       -0.0091
     26 C           2.4625   -0.0744   -0.0528 C.ar    1  UNL1        0.0048
     27 C          -1.3171   -0.0190   -0.0726 C.ar    1  UNL1        0.0625
     28 N          -2.6256    0.2081    0.2791 N.ar    1  UNL1       -0.3535
     29 H          -5.8316   -1.8554   -1.6484 H       1  UNL1        0.0356
     30 H          -5.8020   -0.2922   -2.5228 H       1  UNL1        0.0356
     31 H          -8.1730   -0.5856   -1.2925 H       1  UNL1        0.0575
     32 H          -7.6724    0.6567    0.9467 H       1  UNL1        0.0615
     33 H          -5.0915    0.8194    1.3281 H       1  UNL1        0.0621
     34 H          -2.9940   -1.4212   -2.5473 H       1  UNL1        0.0650
     35 H          -1.6422    1.5522    2.6339 H       1  UNL1        0.0813
     36 H          -0.0159    2.4860    4.2973 H       1  UNL1        0.1648
     37 H           2.3861    2.1215    3.7403 H       1  UNL1        0.0813
     38 H           4.2260    1.4044    2.5565 H       1  UNL1        0.0624
     39 H           6.1177    0.6255    1.2676 H       1  UNL1        0.0624
     40 H           7.0786   -0.4688   -0.5945 H       1  UNL1        0.0624
     41 H           6.9085   -1.6917   -2.7130 H       1  UNL1        0.0618
     42 H           4.6729   -2.2005   -3.6600 H       1  UNL1        0.0618
     43 H           2.6773   -1.5110   -2.5290 H       1  UNL1        0.0624
     44 H          -2.8937    0.7001    1.1181 H       1  UNL1        0.1659
@<TRIPOS>BOND
     1     1     2    1
     2     2     3    2
     3     3     4    1
     4     4     5    2
     5     5     6    1
     6     6     7   ar
     7     7     8   ar
     8     8     9   ar
     9     9    10   ar
    10    10    11   ar
    11    11    12   ar
    12    12    13   ar
    13    13    14   ar
    14    14    15   ar
    15    15    16   ar
    16    16    17   ar
    17    17    18   ar
    18    18    19   ar
    19    19    20   ar
    20    20    21   ar
    21    21    22   ar
    22    22    23   ar
    23    23    24   ar
    24    24    25   ar
    25    25    26   ar
    26    11    27   ar
    27    27    28   ar
    28     5     1    1
    29    28     6   ar
    30    27     8   ar
    31    26    10   ar
    32    16    12   ar
    33    26    17   ar
    34    25    20   ar
    35     1    29    1
    36     1    30    1
    37     2    31    1
    38     3    32    1
    39     4    33    1
    40     7    34    1
    41    13    35    1
    42    14    36    1
    43    15    37    1
    44    18    38    1
    45    19    39    1
    46    21    40    1
    47    22    41    1
    48    23    42    1
    49    24    43    1
    50    28    44    1
