@<TRIPOS>MOLECULE
*****
 36 41 0 0 0
SMALL
GASTEIGER

@<TRIPOS>ATOM
      1 SI         -1.8307   -3.5398    0.3373 Si      1  UNL1        0.0000
      2 C          -2.8708   -2.0133    0.0639 C.2     1  UNL1        0.0000
      3 C          -2.1114   -0.8987   -0.0085 C.ar    1  UNL1        0.0000
      4 C          -2.6339    0.4707   -0.2263 C.ar    1  UNL1        0.0000
      5 C          -1.7529    1.4991   -0.2913 C.ar    1  UNL1        0.0000
      6 C          -0.3595    1.2274   -0.1540 C.ar    1  UNL1        0.0000
      7 O           0.6365    2.1653   -0.2011 O.2     1  UNL1        0.0000
      8 C           1.8193    1.5173   -0.0274 C.ar    1  UNL1        0.0000
      9 C           3.0709    2.1177   -0.0116 C.ar    1  UNL1        0.0000
     10 C           4.2039    1.3171    0.1786 C.ar    1  UNL1        0.0000
     11 C           5.6009    1.5686    0.2510 C.ar    1  UNL1        0.0000
     12 C           6.2332    0.3634    0.4565 C.ar    1  UNL1        0.0000
     13 N           5.2723   -0.6116    0.5118 N.ar    1  UNL1        0.0000
     14 C           4.0240   -0.0565    0.3450 C.ar    1  UNL1        0.0000
     15 C           2.7584   -0.6500    0.3273 C.ar    1  UNL1        0.0000
     16 C           1.6226    0.1506    0.1368 C.ar    1  UNL1        0.0000
     17 C           0.2189   -0.0242    0.0539 C.ar    1  UNL1        0.0000
     18 C          -0.6450   -1.1589    0.1366 C.ar    1  UNL1        0.0000
     19 C          -0.3141   -2.4504    0.3235 C.2     1  UNL1        0.0000
     20 C          -4.0221    0.7970   -0.3378 C.ar    1  UNL1        0.0000
     21 C          -5.0284    0.7184    0.6120 C.ar    1  UNL1        0.0000
     22 N          -6.2954    1.0838    0.1984 N.ar    1  UNL1        0.0000
     23 C          -6.2469    1.4358   -1.0663 C.ar    1  UNL1        0.0000
     24 S          -4.7124    1.3462   -1.8223 S.2     1  UNL1        0.0000
     25 H          -1.8670   -4.4672   -0.8181 H       1  UNL1        0.0000
     26 H          -2.0668   -4.1552    1.6647 H       1  UNL1        0.0000
     27 H          -3.9434   -2.0879   -0.0239 H       1  UNL1        0.0000
     28 H          -2.0587    2.5301   -0.4330 H       1  UNL1        0.0000
     29 H           3.1628    3.1904   -0.1452 H       1  UNL1        0.0000
     30 H           6.0891    2.5303    0.1619 H       1  UNL1        0.0000
     31 H           7.2806    0.1168    0.5678 H       1  UNL1        0.0000
     32 H           5.4491   -1.5964    0.6540 H       1  UNL1        0.0000
     33 H           2.6590   -1.7218    0.4603 H       1  UNL1        0.0000
     34 H           0.6678   -2.8722    0.4486 H       1  UNL1        0.0000
     35 H          -4.8848    0.3949    1.6364 H       1  UNL1        0.0000
     36 H          -7.1248    1.7631   -1.6080 H       1  UNL1        0.0000
@<TRIPOS>BOND
     1     1     2    1
     2     2     3    2
     3     3     4   ar
     4     4     5   ar
     5     5     6   ar
     6     6     7   ar
     7     7     8   ar
     8     8     9   ar
     9     9    10   ar
    10    10    11   ar
    11    11    12   ar
    12    12    13   ar
    13    13    14   ar
    14    14    15   ar
    15    15    16   ar
    16    16    17   ar
    17    17    18   ar
    18    18    19    2
    19     4    20    1
    20    20    21   ar
    21    21    22   ar
    22    22    23   ar
    23    23    24   ar
    24    19     1    1
    25    24    20   ar
    26    18     3   ar
    27    17     6   ar
    28    16     8   ar
    29    14    10   ar
    30     1    25    1
    31     1    26    1
    32     2    27    1
    33     5    28    1
    34     9    29    1
    35    11    30    1
    36    12    31    1
    37    13    32    1
    38    15    33    1
    39    19    34    1
    40    21    35    1
    41    23    36    1
