@<TRIPOS>MOLECULE
*****
 44 50 0 0 0
SMALL
GASTEIGER

@<TRIPOS>ATOM
      1 C           6.0420    0.3103   -0.1345 C.3     1  UNL1       -0.0086
      2 C           7.1257   -0.0931    0.8228 C.2     1  UNL1       -0.0797
      3 C           6.5777   -0.6307    1.9179 C.2     1  UNL1       -0.0651
      4 C           5.1448   -0.6271    1.7804 C.2     1  UNL1       -0.0580
      5 C           4.7842   -0.0874    0.5985 C.2     1  UNL1       -0.0358
      6 C           3.4125    0.0834    0.1106 C.ar    1  UNL1       -0.0098
      7 C           2.2681   -0.3160    0.8571 C.ar    1  UNL1       -0.0392
      8 C           0.9279   -0.1524    0.3879 C.ar    1  UNL1        0.0233
      9 S          -0.5351   -0.5802    1.1663 S.2     1  UNL1       -0.0860
     10 C          -1.5642   -0.0174   -0.1247 C.ar    1  UNL1        0.0470
     11 C          -0.7591    0.5008   -1.1550 C.ar    1  UNL1        0.0870
     12 N          -1.2621    1.0189   -2.3031 N.ar    1  UNL1       -0.2532
     13 C          -2.5953    1.0120   -2.4088 C.ar    1  UNL1        0.0360
     14 C          -3.4869    0.5291   -1.4614 C.ar    1  UNL1        0.0019
     15 C          -4.8536    0.5994   -1.7347 C.ar    1  UNL1       -0.0520
     16 C          -5.7851    0.1297   -0.8193 C.ar    1  UNL1       -0.0534
     17 C          -5.3822   -0.4240    0.3955 C.ar    1  UNL1       -0.0172
     18 C          -6.3802   -0.8795    1.2749 C.ar    1  UNL1       -0.0540
     19 C          -6.0574   -1.4427    2.5026 C.ar    1  UNL1       -0.0612
     20 C          -4.7274   -1.5548    2.8615 C.ar    1  UNL1       -0.0611
     21 C          -3.7270   -1.1033    1.9912 C.ar    1  UNL1       -0.0534
     22 C          -4.0001   -0.5197    0.7243 C.ar    1  UNL1       -0.0090
     23 C          -3.0148   -0.0247   -0.2402 C.ar    1  UNL1        0.0071
     24 C           0.6107    0.4055   -0.8284 C.ar    1  UNL1        0.0259
     25 C           1.7221    0.8234   -1.6176 C.ar    1  UNL1        0.0307
     26 C           1.7448    1.4019   -2.8471 C.ar    1  UNL1        0.1001
     27 O           3.0549    1.6118   -3.1756 O.2     1  UNL1       -0.4698
     28 C           3.8188    1.1536   -2.1309 C.ar    1  UNL1        0.1000
     29 C           3.0314    0.6446   -1.1186 C.ar    1  UNL1        0.0279
     30 H           6.0873    1.3898   -0.3091 H       1  UNL1        0.0356
     31 H           6.1566   -0.2391   -1.0740 H       1  UNL1        0.0356
     32 H           8.1823    0.0360    0.6437 H       1  UNL1        0.0575
     33 H           7.1064   -1.0121    2.7782 H       1  UNL1        0.0615
     34 H           4.4997   -1.0171    2.5526 H       1  UNL1        0.0620
     35 H           2.3985   -0.7707    1.8370 H       1  UNL1        0.0635
     36 H          -2.9549    1.4366   -3.3449 H       1  UNL1        0.0836
     37 H          -5.2164    1.0233   -2.6697 H       1  UNL1        0.0624
     38 H          -6.8417    0.2034   -1.0716 H       1  UNL1        0.0624
     39 H          -7.4321   -0.7982    1.0065 H       1  UNL1        0.0624
     40 H          -6.8399   -1.7900    3.1711 H       1  UNL1        0.0618
     41 H          -4.4545   -1.9928    3.8184 H       1  UNL1        0.0618
     42 H          -2.7154   -1.2292    2.3507 H       1  UNL1        0.0624
     43 H           1.0112    1.7135   -3.5768 H       1  UNL1        0.1036
     44 H           4.8780    1.2753   -2.2945 H       1  UNL1        0.1036
@<TRIPOS>BOND
     1     1     2    1
     2     2     3    2
     3     3     4    1
     4     4     5    2
     5     5     6    1
     6     6     7   ar
     7     7     8   ar
     8     8     9   ar
     9     9    10   ar
    10    10    11   ar
    11    11    12   ar
    12    12    13   ar
    13    13    14   ar
    14    14    15   ar
    15    15    16   ar
    16    16    17   ar
    17    17    18   ar
    18    18    19   ar
    19    19    20   ar
    20    20    21   ar
    21    21    22   ar
    22    22    23   ar
    23    11    24   ar
    24    24    25   ar
    25    25    26   ar
    26    26    27   ar
    27    27    28   ar
    28    28    29   ar
    29     5     1    1
    30    29     6   ar
    31    24     8   ar
    32    29    25   ar
    33    23    10   ar
    34    23    14   ar
    35    22    17   ar
    36     1    30    1
    37     1    31    1
    38     2    32    1
    39     3    33    1
    40     4    34    1
    41     7    35    1
    42    13    36    1
    43    15    37    1
    44    16    38    1
    45    18    39    1
    46    19    40    1
    47    20    41    1
    48    21    42    1
    49    26    43    1
    50    28    44    1
