@<TRIPOS>MOLECULE
*****
 33 38 0 0 0
SMALL
GASTEIGER

@<TRIPOS>ATOM
      1 C           4.3897   -0.7637   -0.9036 C.3     1  UNL1       -0.0086
      2 C           5.8196   -0.3639   -0.6934 C.2     1  UNL1       -0.0797
      3 C           5.8719    0.6968    0.1204 C.2     1  UNL1       -0.0651
      4 C           4.5352    1.0729    0.5025 C.2     1  UNL1       -0.0579
      5 C           3.6348    0.2507   -0.0684 C.2     1  UNL1       -0.0344
      6 C           2.1655    0.2465    0.0308 C.ar    1  UNL1        0.0077
      7 C           1.3810   -0.7046   -0.6791 C.ar    1  UNL1       -0.0377
      8 C          -0.0276   -0.7145   -0.5882 C.ar    1  UNL1        0.0263
      9 S          -1.1723   -1.7782   -1.3643 S.2     1  UNL1       -0.0842
     10 C          -2.5107   -0.9512   -0.6045 C.ar    1  UNL1        0.0677
     11 C          -3.9265   -0.9919   -0.5379 C.ar    1  UNL1        0.0526
     12 C          -4.9585   -1.7527   -1.0781 C.ar    1  UNL1        0.0394
     13 N          -6.2452   -1.4634   -0.7549 N.ar    1  UNL1       -0.2624
     14 C          -6.5016   -0.4353    0.0909 C.ar    1  UNL1        0.0311
     15 C          -5.5411    0.3738    0.6750 C.ar    1  UNL1       -0.0006
     16 C          -4.2396    0.0488    0.3220 C.ar    1  UNL1        0.1397
     17 O          -3.1327    0.7040    0.7720 O.2     1  UNL1       -0.4535
     18 C          -2.0784    0.0685    0.1862 C.ar    1  UNL1        0.1532
     19 C          -0.6965    0.1955    0.1915 C.ar    1  UNL1        0.0603
     20 C          -0.0192    1.1881    0.9436 C.ar    1  UNL1        0.1122
     21 N          -0.6269    2.0814    1.7066 N.ar    1  UNL1       -0.1900
     22 S           0.6482    2.9621    2.3281 S.2     1  UNL1        0.1165
     23 N           1.9352    2.1812    1.6083 N.ar    1  UNL1       -0.1902
     24 C           1.4422    1.1855    0.8388 C.ar    1  UNL1        0.1080
     25 H           4.1272   -0.6903   -1.9640 H       1  UNL1        0.0356
     26 H           4.2237   -1.7852   -0.5460 H       1  UNL1        0.0356
     27 H           6.6692   -0.8616   -1.1354 H       1  UNL1        0.0575
     28 H           6.7631    1.2074    0.4528 H       1  UNL1        0.0615
     29 H           4.3464    1.9086    1.1587 H       1  UNL1        0.0620
     30 H           1.8605   -1.4483   -1.3120 H       1  UNL1        0.0635
     31 H          -4.8027   -2.5828   -1.7574 H       1  UNL1        0.0837
     32 H          -7.5568   -0.2708    0.2974 H       1  UNL1        0.0831
     33 H          -5.7772    1.1867    1.3461 H       1  UNL1        0.0670
@<TRIPOS>BOND
     1     1     2    1
     2     2     3    2
     3     3     4    1
     4     4     5    2
     5     5     6    1
     6     6     7   ar
     7     7     8   ar
     8     8     9   ar
     9     9    10   ar
    10    10    11   ar
    11    11    12   ar
    12    12    13   ar
    13    13    14   ar
    14    14    15   ar
    15    15    16   ar
    16    16    17   ar
    17    17    18   ar
    18    18    19   ar
    19    19    20   ar
    20    20    21   ar
    21    21    22   ar
    22    22    23   ar
    23    23    24   ar
    24     5     1    1
    25    24     6   ar
    26    19     8   ar
    27    24    20   ar
    28    18    10   ar
    29    16    11   ar
    30     1    25    1
    31     1    26    1
    32     2    27    1
    33     3    28    1
    34     4    29    1
    35     7    30    1
    36    12    31    1
    37    14    32    1
    38    15    33    1
