@<TRIPOS>MOLECULE
*****
 47 54 0 0 0
SMALL
GASTEIGER

@<TRIPOS>ATOM
      1 C           5.5320   -1.4053   -0.4485 C.3     1  UNL1       -0.0086
      2 C           6.9866   -1.1001   -0.6606 C.2     1  UNL1       -0.0797
      3 C           7.1426    0.2098   -0.8892 C.2     1  UNL1       -0.0651
      4 C           5.8571    0.8583   -0.8507 C.2     1  UNL1       -0.0580
      5 C           4.8904   -0.0449   -0.6011 C.2     1  UNL1       -0.0365
      6 C           3.4433    0.1834   -0.4748 C.ar    1  UNL1       -0.0209
      7 C           2.8688    1.4293   -0.7290 C.ar    1  UNL1       -0.0537
      8 C           1.4826    1.6438   -0.5991 C.ar    1  UNL1       -0.0528
      9 C           0.5686    0.6465   -0.1862 C.ar    1  UNL1       -0.0089
     10 C           1.1726   -0.6270   -0.0116 C.ar    1  UNL1       -0.0076
     11 C           2.5741   -0.8504   -0.1264 C.ar    1  UNL1       -0.0460
     12 C           0.2125   -1.6096    0.2927 C.ar    1  UNL1        0.0077
     13 C           0.4841   -2.9195    0.6170 C.ar    1  UNL1        0.0100
     14 N          -0.7125   -3.5182    0.9172 N.ar    1  UNL1       -0.3659
     15 C          -1.7304   -2.6017    0.8027 C.ar    1  UNL1        0.0100
     16 C          -1.2077   -1.4236    0.3170 C.ar    1  UNL1        0.0084
     17 C          -1.9171   -0.2110    0.0668 C.ar    1  UNL1        0.0023
     18 C          -0.9135    0.8541   -0.0018 C.ar    1  UNL1       -0.0007
     19 C          -1.5917    2.1067    0.1706 C.ar    1  UNL1       -0.0020
     20 C          -0.9411    3.2753    0.5140 C.ar    1  UNL1       -0.0160
     21 S          -1.9873    4.6208    0.6484 S.2     1  UNL1       -0.1038
     22 C          -3.3593    3.6383    0.3863 C.ar    1  UNL1       -0.0160
     23 C          -3.0319    2.3100    0.2004 C.ar    1  UNL1       -0.0025
     24 C          -4.0132    1.2970    0.0379 C.ar    1  UNL1       -0.0069
     25 C          -5.4288    1.5573   -0.0057 C.ar    1  UNL1       -0.0513
     26 C          -6.3880    0.5679   -0.2180 C.ar    1  UNL1       -0.0329
     27 C          -5.8785   -0.7210   -0.4482 C.ar    1  UNL1        0.1005
     28 N          -6.6403   -1.7860   -0.7427 N.ar    1  UNL1       -0.1908
     29 S          -5.6032   -3.0405   -1.0253 S.2     1  UNL1        0.1165
     30 N          -4.1552   -2.2975   -0.7565 N.ar    1  UNL1       -0.1901
     31 C          -4.3908   -1.0226   -0.3940 C.ar    1  UNL1        0.1082
     32 C          -3.3997   -0.0059   -0.0653 C.ar    1  UNL1        0.0192
     33 H           5.1738   -2.1087   -1.2071 H       1  UNL1        0.0356
     34 H           5.3730   -1.8197    0.5523 H       1  UNL1        0.0356
     35 H           7.7777   -1.8336   -0.6304 H       1  UNL1        0.0575
     36 H           8.0751    0.7205   -1.0754 H       1  UNL1        0.0615
     37 H           5.7402    1.9200   -1.0029 H       1  UNL1        0.0620
     38 H           3.4786    2.2679   -1.0558 H       1  UNL1        0.0624
     39 H           1.1250    2.6245   -0.9010 H       1  UNL1        0.0624
     40 H           2.9575   -1.8504    0.0494 H       1  UNL1        0.0630
     41 H           1.4057   -3.4784    0.6970 H       1  UNL1        0.0813
     42 H          -0.8270   -4.4750    1.2257 H       1  UNL1        0.1648
     43 H          -2.7271   -2.8941    1.0961 H       1  UNL1        0.0813
     44 H           0.1018    3.4469    0.7292 H       1  UNL1        0.0700
     45 H          -4.3282    4.1134    0.4202 H       1  UNL1        0.0700
     46 H          -5.8024    2.5721    0.1181 H       1  UNL1        0.0624
     47 H          -7.4489    0.7812   -0.2561 H       1  UNL1        0.0640
@<TRIPOS>BOND
     1     1     2    1
     2     2     3    2
     3     3     4    1
     4     4     5    2
     5     5     6    1
     6     6     7   ar
     7     7     8   ar
     8     8     9   ar
     9     9    10   ar
    10    10    11   ar
    11    10    12   ar
    12    12    13   ar
    13    13    14   ar
    14    14    15   ar
    15    15    16   ar
    16    16    17   ar
    17    17    18   ar
    18    18    19   ar
    19    19    20   ar
    20    20    21   ar
    21    21    22   ar
    22    22    23   ar
    23    23    24   ar
    24    24    25   ar
    25    25    26   ar
    26    26    27   ar
    27    27    28   ar
    28    28    29   ar
    29    29    30   ar
    30    30    31   ar
    31    31    32   ar
    32     5     1    1
    33    11     6   ar
    34    16    12   ar
    35    32    17   ar
    36    18     9   ar
    37    23    19   ar
    38    32    24   ar
    39    31    27   ar
    40     1    33    1
    41     1    34    1
    42     2    35    1
    43     3    36    1
    44     4    37    1
    45     7    38    1
    46     8    39    1
    47    11    40    1
    48    13    41    1
    49    14    42    1
    50    15    43    1
    51    20    44    1
    52    22    45    1
    53    25    46    1
    54    26    47    1
