@<TRIPOS>MOLECULE
*****
 49 55 0 0 0
SMALL
GASTEIGER

@<TRIPOS>ATOM
      1 C           5.9558   -0.0673    1.4749 C.3     1  UNL1       -0.0086
      2 C           7.4309   -0.1509    1.2084 C.2     1  UNL1       -0.0797
      3 C           7.6489   -0.1682   -0.1124 C.2     1  UNL1       -0.0651
      4 C           6.3883   -0.1008   -0.8059 C.2     1  UNL1       -0.0580
      5 C           5.3751   -0.0434    0.0791 C.2     1  UNL1       -0.0365
      6 C           3.9320    0.0370   -0.1946 C.ar    1  UNL1       -0.0210
      7 C           3.4264   -0.0102   -1.4921 C.ar    1  UNL1       -0.0537
      8 C           2.0470    0.0750   -1.7355 C.ar    1  UNL1       -0.0529
      9 C           1.0925    0.2244   -0.7023 C.ar    1  UNL1       -0.0095
     10 C           1.6112    0.2156    0.6052 C.ar    1  UNL1       -0.0167
     11 C           0.7346    0.2932    1.6817 C.ar    1  UNL1       -0.0534
     12 C          -0.6519    0.2938    1.4909 C.ar    1  UNL1       -0.0528
     13 C          -1.2802    0.2329    0.2337 C.ar    1  UNL1       -0.0084
     14 C          -0.3541    0.3515   -0.8760 C.ar    1  UNL1       -0.0004
     15 C          -1.0866    0.6532   -2.0616 C.ar    1  UNL1        0.0083
     16 C          -0.5920    1.0511   -3.2851 C.ar    1  UNL1        0.0100
     17 N          -1.6558    1.2963   -4.1228 N.ar    1  UNL1       -0.3659
     18 C          -2.8315    1.1299   -3.4379 C.ar    1  UNL1        0.0100
     19 C          -2.5070    0.7577   -2.1527 C.ar    1  UNL1        0.0077
     20 C          -3.4149    0.5233   -1.1024 C.ar    1  UNL1       -0.0076
     21 C          -4.8101    0.6663   -1.2454 C.ar    1  UNL1       -0.0528
     22 C          -5.6444    0.3941   -0.1771 C.ar    1  UNL1       -0.0534
     23 C          -5.1216   -0.1190    1.0060 C.ar    1  UNL1       -0.0173
     24 C          -6.0222   -0.4823    2.0228 C.ar    1  UNL1       -0.0540
     25 C          -5.5838   -1.1064    3.1843 C.ar    1  UNL1       -0.0612
     26 C          -4.2406   -1.4036    3.3219 C.ar    1  UNL1       -0.0611
     27 C          -3.3377   -1.0267    2.3204 C.ar    1  UNL1       -0.0534
     28 C          -3.7147   -0.3086    1.1545 C.ar    1  UNL1       -0.0096
     29 C          -2.7818    0.1445    0.1211 C.ar    1  UNL1       -0.0018
     30 C           3.0003    0.1420    0.8442 C.ar    1  UNL1       -0.0466
     31 H           5.6191   -0.9435    2.0383 H       1  UNL1        0.0356
     32 H           5.7207    0.8478    2.0280 H       1  UNL1        0.0356
     33 H           8.1910   -0.1901    1.9736 H       1  UNL1        0.0575
     34 H           8.6092   -0.2233   -0.6020 H       1  UNL1        0.0615
     35 H           6.3205   -0.0974   -1.8826 H       1  UNL1        0.0620
     36 H           4.0851   -0.1283   -2.3480 H       1  UNL1        0.0624
     37 H           1.7312   -0.0366   -2.7659 H       1  UNL1        0.0624
     38 H           1.1126    0.3405    2.7014 H       1  UNL1        0.0624
     39 H          -1.2471    0.4181    2.3929 H       1  UNL1        0.0624
     40 H           0.4034    1.2268   -3.6603 H       1  UNL1        0.0813
     41 H          -1.5794    1.5997   -5.0852 H       1  UNL1        0.1648
     42 H          -3.7759    1.3098   -3.9319 H       1  UNL1        0.0813
     43 H          -5.2488    1.0010   -2.1801 H       1  UNL1        0.0624
     44 H          -6.7160    0.5305   -0.3031 H       1  UNL1        0.0624
     45 H          -7.0893   -0.3036    1.9043 H       1  UNL1        0.0624
     46 H          -6.2936   -1.3935    3.9545 H       1  UNL1        0.0618
     47 H          -3.8862   -1.9439    4.1958 H       1  UNL1        0.0618
     48 H          -2.3148   -1.3700    2.4497 H       1  UNL1        0.0624
     49 H           3.3462    0.1610    1.8756 H       1  UNL1        0.0630
@<TRIPOS>BOND
     1     1     2    1
     2     2     3    2
     3     3     4    1
     4     4     5    2
     5     5     6    1
     6     6     7   ar
     7     7     8   ar
     8     8     9   ar
     9     9    10   ar
    10    10    11   ar
    11    11    12   ar
    12    12    13   ar
    13    13    14   ar
    14    14    15   ar
    15    15    16   ar
    16    16    17   ar
    17    17    18   ar
    18    18    19   ar
    19    19    20   ar
    20    20    21   ar
    21    21    22   ar
    22    22    23   ar
    23    23    24   ar
    24    24    25   ar
    25    25    26   ar
    26    26    27   ar
    27    27    28   ar
    28    28    29   ar
    29    10    30   ar
    30     5     1    1
    31    30     6   ar
    32    14     9   ar
    33    19    15   ar
    34    29    20   ar
    35    29    13   ar
    36    28    23   ar
    37     1    31    1
    38     1    32    1
    39     2    33    1
    40     3    34    1
    41     4    35    1
    42     7    36    1
    43     8    37    1
    44    11    38    1
    45    12    39    1
    46    16    40    1
    47    17    41    1
    48    18    42    1
    49    21    43    1
    50    22    44    1
    51    24    45    1
    52    25    46    1
    53    26    47    1
    54    27    48    1
    55    30    49    1
