@<TRIPOS>MOLECULE
*****
 46 52 0 0 0
SMALL
GASTEIGER

@<TRIPOS>ATOM
      1 C           5.2418    0.0783    1.2206 C.3     1  UNL1        0.0000
      2 C           6.6666    0.3053    0.8072 C.2     1  UNL1        0.0000
      3 C           6.7107    0.6518   -0.4853 C.2     1  UNL1        0.0000
      4 C           5.3729    0.6831   -1.0184 C.2     1  UNL1        0.0000
      5 C           4.4867    0.3556   -0.0593 C.2     1  UNL1        0.0000
      6 C           3.0257    0.2642   -0.1689 C.ar    1  UNL1        0.0000
      7 C           2.3449    0.5193   -1.3465 C.ar    1  UNL1        0.0000
      8 N           0.9985    0.4479   -1.4963 N.ar    1  UNL1        0.0000
      9 C           0.2199    0.1054   -0.4433 C.ar    1  UNL1        0.0000
     10 C           0.8187   -0.1736    0.7992 C.ar    1  UNL1        0.0000
     11 C           2.2222   -0.0886    0.9152 C.ar    1  UNL1        0.0000
     12 C          -0.0355   -0.5454    1.9393 C.ar    1  UNL1        0.0000
     13 C           0.4056   -0.8375    3.1829 C.2     1  UNL1        0.0000
     14 SI         -0.9968   -1.2581    4.3365 Si      1  UNL1        0.0000
     15 C          -2.1475   -0.9743    2.9029 C.2     1  UNL1        0.0000
     16 C          -1.5003   -0.6215    1.7698 C.ar    1  UNL1        0.0000
     17 C          -2.1032   -0.3219    0.4476 C.ar    1  UNL1        0.0000
     18 C          -3.4927   -0.3853    0.2527 C.ar    1  UNL1        0.0000
     19 O          -4.4373   -0.7110    1.1899 O.2     1  UNL1        0.0000
     20 C          -5.6537   -0.6567    0.6041 C.ar    1  UNL1        0.0000
     21 C          -5.5253   -0.2984   -0.7118 C.ar    1  UNL1        0.0000
     22 C          -4.1273   -0.1190   -0.9533 C.ar    1  UNL1        0.0000
     23 C          -3.3354    0.2409   -2.0673 C.ar    1  UNL1        0.0000
     24 C          -4.0215    0.5042   -3.2783 C.ar    1  UNL1        0.0000
     25 C          -3.3305    0.8646   -4.4255 C.ar    1  UNL1        0.0000
     26 C          -1.9539    0.9643   -4.3723 C.ar    1  UNL1        0.0000
     27 C          -1.2737    0.7036   -3.1729 C.ar    1  UNL1        0.0000
     28 C          -1.9158    0.3287   -1.9555 C.ar    1  UNL1        0.0000
     29 C          -1.2795    0.0424   -0.6732 C.ar    1  UNL1        0.0000
     30 H           5.1018   -0.9537    1.5582 H       1  UNL1        0.0000
     31 H           4.9595    0.7748    2.0167 H       1  UNL1        0.0000
     32 H           7.5191    0.2020    1.4613 H       1  UNL1        0.0000
     33 H           7.5982    0.8767   -1.0574 H       1  UNL1        0.0000
     34 H           5.1685    0.9391   -2.0468 H       1  UNL1        0.0000
     35 H           2.8639    0.8028   -2.2573 H       1  UNL1        0.0000
     36 H           2.6900   -0.3024    1.8701 H       1  UNL1        0.0000
     37 H           1.4156   -0.8526    3.5556 H       1  UNL1        0.0000
     38 H          -1.1549   -0.2535    5.4154 H       1  UNL1        0.0000
     39 H          -0.9552   -2.6735    4.7760 H       1  UNL1        0.0000
     40 H          -3.2036   -1.1038    3.0634 H       1  UNL1        0.0000
     41 H          -6.4944   -0.8945    1.2405 H       1  UNL1        0.0000
     42 H          -6.3382   -0.1802   -1.4132 H       1  UNL1        0.0000
     43 H          -5.1042    0.4309   -3.3397 H       1  UNL1        0.0000
     44 H          -3.8626    1.0651   -5.3505 H       1  UNL1        0.0000
     45 H          -1.3904    1.2451   -5.2585 H       1  UNL1        0.0000
     46 H          -0.1971    0.8089   -3.2346 H       1  UNL1        0.0000
@<TRIPOS>BOND
     1     1     2    1
     2     2     3    2
     3     3     4    1
     4     4     5    2
     5     5     6    1
     6     6     7   ar
     7     7     8   ar
     8     8     9   ar
     9     9    10   ar
    10    10    11   ar
    11    10    12   ar
    12    12    13    2
    13    13    14    1
    14    14    15    1
    15    15    16    2
    16    16    17   ar
    17    17    18   ar
    18    18    19   ar
    19    19    20   ar
    20    20    21   ar
    21    21    22   ar
    22    22    23   ar
    23    23    24   ar
    24    24    25   ar
    25    25    26   ar
    26    26    27   ar
    27    27    28   ar
    28    28    29   ar
    29     5     1    1
    30    11     6   ar
    31    16    12   ar
    32    29    17   ar
    33    29     9   ar
    34    22    18   ar
    35    28    23   ar
    36     1    30    1
    37     1    31    1
    38     2    32    1
    39     3    33    1
    40     4    34    1
    41     7    35    1
    42    11    36    1
    43    13    37    1
    44    14    38    1
    45    14    39    1
    46    15    40    1
    47    20    41    1
    48    21    42    1
    49    24    43    1
    50    25    44    1
    51    26    45    1
    52    27    46    1
