@<TRIPOS>MOLECULE
*****
 44 50 0 0 0
SMALL
GASTEIGER

@<TRIPOS>ATOM
      1 C           5.0821    0.7986    0.0493 C.3     1  UNL1       -0.0086
      2 C           6.5069    0.3427    0.1694 C.2     1  UNL1       -0.0797
      3 C           6.5401   -0.9767    0.3933 C.2     1  UNL1       -0.0651
      4 C           5.1944   -1.4884    0.4392 C.2     1  UNL1       -0.0580
      5 C           4.3139   -0.4888    0.2436 C.2     1  UNL1       -0.0350
      6 C           2.8486   -0.5680    0.2126 C.ar    1  UNL1       -0.0028
      7 C           2.1597   -1.7451    0.3889 C.ar    1  UNL1        0.0357
      8 N           0.8124   -1.8492    0.3655 N.ar    1  UNL1       -0.2537
      9 C           0.0312   -0.7658    0.1603 C.ar    1  UNL1        0.0800
     10 C           0.6156    0.5052   -0.0348 C.ar    1  UNL1        0.0093
     11 C           2.0423    0.5519    0.0007 C.ar    1  UNL1       -0.0431
     12 C          -0.2028    1.6694   -0.2545 C.ar    1  UNL1       -0.0080
     13 C           0.3613    2.9632   -0.4538 C.ar    1  UNL1       -0.0534
     14 C          -0.4009    4.1092   -0.6688 C.ar    1  UNL1       -0.0611
     15 C          -1.7712    4.0040   -0.6929 C.ar    1  UNL1       -0.0611
     16 C          -2.3605    2.7550   -0.5018 C.ar    1  UNL1       -0.0533
     17 C          -1.6204    1.5570   -0.2788 C.ar    1  UNL1       -0.0059
     18 C          -2.2211    0.2606   -0.0801 C.ar    1  UNL1        0.0353
     19 C          -3.6507    0.0481   -0.0882 C.ar    1  UNL1        0.1437
     20 O          -4.6466    0.9853   -0.2756 O.2     1  UNL1       -0.4623
     21 C          -5.8534    0.3563   -0.2072 C.ar    1  UNL1        0.0932
     22 C          -5.6953   -0.9905    0.0232 C.ar    1  UNL1       -0.0155
     23 C          -4.3122   -1.1459    0.0915 C.ar    1  UNL1        0.0290
     24 C          -3.5299   -2.2960    0.3080 C.ar    1  UNL1        0.0005
     25 C          -4.0432   -3.5447    0.5014 C.ar    1  UNL1       -0.0159
     26 S          -2.7409   -4.6368    0.7241 S.2     1  UNL1       -0.1038
     27 C          -1.5702   -3.3764    0.5487 C.ar    1  UNL1       -0.0159
     28 C          -2.1223   -2.1280    0.3228 C.ar    1  UNL1       -0.0003
     29 C          -1.3842   -0.8950    0.1389 C.ar    1  UNL1        0.0204
     30 H           4.9019    1.2325   -0.9395 H       1  UNL1        0.0356
     31 H           4.8486    1.5312    0.8287 H       1  UNL1        0.0356
     32 H           7.3672    0.9894    0.0861 H       1  UNL1        0.0575
     33 H           7.4250   -1.5818    0.5223 H       1  UNL1        0.0615
     34 H           4.9809   -2.5328    0.6092 H       1  UNL1        0.0620
     35 H           2.6652   -2.6900    0.5624 H       1  UNL1        0.0836
     36 H           2.5474    1.5000   -0.1429 H       1  UNL1        0.0631
     37 H           1.4356    3.1198   -0.4473 H       1  UNL1        0.0624
     38 H           0.0816    5.0714   -0.8152 H       1  UNL1        0.0618
     39 H          -2.3915    4.8805   -0.8584 H       1  UNL1        0.0618
     40 H          -3.4441    2.7527   -0.5344 H       1  UNL1        0.0624
     41 H          -6.7152    0.9956   -0.3405 H       1  UNL1        0.1030
     42 H          -6.4816   -1.7239    0.1220 H       1  UNL1        0.0655
     43 H          -5.0683   -3.8857    0.5273 H       1  UNL1        0.0700
     44 H          -0.5353   -3.6703    0.6296 H       1  UNL1        0.0700
@<TRIPOS>BOND
     1     1     2    1
     2     2     3    2
     3     3     4    1
     4     4     5    2
     5     5     6    1
     6     6     7   ar
     7     7     8   ar
     8     8     9   ar
     9     9    10   ar
    10    10    11   ar
    11    10    12   ar
    12    12    13   ar
    13    13    14   ar
    14    14    15   ar
    15    15    16   ar
    16    16    17   ar
    17    17    18   ar
    18    18    19   ar
    19    19    20   ar
    20    20    21   ar
    21    21    22   ar
    22    22    23   ar
    23    23    24   ar
    24    24    25   ar
    25    25    26   ar
    26    26    27   ar
    27    27    28   ar
    28    28    29   ar
    29     5     1    1
    30    11     6   ar
    31    17    12   ar
    32    29    18   ar
    33    29     9   ar
    34    23    19   ar
    35    28    24   ar
    36     1    30    1
    37     1    31    1
    38     2    32    1
    39     3    33    1
    40     4    34    1
    41     7    35    1
    42    11    36    1
    43    13    37    1
    44    14    38    1
    45    15    39    1
    46    16    40    1
    47    21    41    1
    48    22    42    1
    49    25    43    1
    50    27    44    1
