@<TRIPOS>MOLECULE
*****
 40 45 0 0 0
SMALL
GASTEIGER

@<TRIPOS>ATOM
      1 C           5.1054    1.3293   -0.0564 C.3     1  UNL1        0.0000
      2 C           6.5370    0.8799   -0.0291 C.2     1  UNL1        0.0000
      3 C           6.5886   -0.4561    0.0415 C.2     1  UNL1        0.0000
      4 C           5.2496   -0.9864    0.0660 C.2     1  UNL1        0.0000
      5 C           4.3550    0.0180    0.0107 C.2     1  UNL1        0.0000
      6 C           2.8900   -0.0685    0.0115 C.ar    1  UNL1        0.0000
      7 C           2.0856    1.0562   -0.0476 C.ar    1  UNL1        0.0000
      8 N           0.7286    1.0440   -0.0506 N.ar    1  UNL1        0.0000
      9 C           0.0530   -0.1282    0.0070 C.ar    1  UNL1        0.0000
     10 C           0.7983   -1.3286    0.0697 C.ar    1  UNL1        0.0000
     11 C           0.1620   -2.5705    0.1308 C.ar    1  UNL1        0.0000
     12 C          -1.2232   -2.6551    0.1313 C.ar    1  UNL1        0.0000
     13 C          -2.0051   -1.4965    0.0706 C.ar    1  UNL1        0.0000
     14 C          -3.4855   -1.5648    0.0698 C.ar    1  UNL1        0.0000
     15 S          -4.3805   -3.0248    0.1409 S.2     1  UNL1        0.0000
     16 C          -5.8758   -2.2010    0.0950 C.ar    1  UNL1        0.0000
     17 C          -5.7103   -0.8361    0.0266 C.ar    1  UNL1        0.0000
     18 C          -4.3327   -0.4724    0.0123 C.ar    1  UNL1        0.0000
     19 C          -3.7688    0.8389   -0.0523 C.ar    1  UNL1        0.0000
     20 C          -4.4645    1.9928   -0.1124 C.2     1  UNL1        0.0000
     21 SI         -3.3358    3.4650   -0.1834 Si      1  UNL1        0.0000
     22 C          -1.9002    2.2847   -0.1198 C.2     1  UNL1        0.0000
     23 C          -2.2819    0.9889   -0.0557 C.ar    1  UNL1        0.0000
     24 C          -1.3674   -0.2152    0.0076 C.ar    1  UNL1        0.0000
     25 C           2.2048   -1.2797    0.0710 C.ar    1  UNL1        0.0000
     26 H           4.8877    1.9652    0.8078 H       1  UNL1        0.0000
     27 H           4.8922    1.8709   -0.9837 H       1  UNL1        0.0000
     28 H           7.3886    1.5425   -0.0619 H       1  UNL1        0.0000
     29 H           7.4823   -1.0608    0.0757 H       1  UNL1        0.0000
     30 H           5.0485   -2.0451    0.1214 H       1  UNL1        0.0000
     31 H           2.5038    2.0575   -0.0972 H       1  UNL1        0.0000
     32 H           0.7403   -3.4912    0.1789 H       1  UNL1        0.0000
     33 H          -1.6724   -3.6434    0.1800 H       1  UNL1        0.0000
     34 H          -6.8040   -2.7549    0.1203 H       1  UNL1        0.0000
     35 H          -6.5415   -0.1438   -0.0107 H       1  UNL1        0.0000
     36 H          -5.5352    2.1132   -0.1215 H       1  UNL1        0.0000
     37 H          -3.4343    4.1881   -1.4744 H       1  UNL1        0.0000
     38 H          -3.4415    4.3142    1.0278 H       1  UNL1        0.0000
     39 H          -0.9018    2.6866   -0.1372 H       1  UNL1        0.0000
     40 H           2.7611   -2.2126    0.1195 H       1  UNL1        0.0000
@<TRIPOS>BOND
     1     1     2    1
     2     2     3    2
     3     3     4    1
     4     4     5    2
     5     5     6    1
     6     6     7   ar
     7     7     8   ar
     8     8     9   ar
     9     9    10   ar
    10    10    11   ar
    11    11    12   ar
    12    12    13   ar
    13    13    14   ar
    14    14    15   ar
    15    15    16   ar
    16    16    17   ar
    17    17    18   ar
    18    18    19   ar
    19    19    20    2
    20    20    21    1
    21    21    22    1
    22    22    23    2
    23    23    24   ar
    24    10    25   ar
    25     5     1    1
    26    25     6   ar
    27    24     9   ar
    28    24    13   ar
    29    18    14   ar
    30    23    19   ar
    31     1    26    1
    32     1    27    1
    33     2    28    1
    34     3    29    1
    35     4    30    1
    36     7    31    1
    37    11    32    1
    38    12    33    1
    39    16    34    1
    40    17    35    1
    41    20    36    1
    42    21    37    1
    43    21    38    1
    44    22    39    1
    45    25    40    1
