@<TRIPOS>MOLECULE
*****
 35 40 0 0 0
SMALL
GASTEIGER

@<TRIPOS>ATOM
      1 C          -5.0235    1.3935   -1.0157 C.3     1  UNL1       -0.0051
      2 C          -5.8981    0.7284    0.0827 C.2     1  UNL1       -0.0776
      3 C          -5.1670   -0.0071    0.9579 C.2     1  UNL1       -0.0416
      4 C          -3.8497    0.1248    0.5118 C.ar    1  UNL1        0.0450
      5 N          -2.6578   -0.3480    0.9288 N.ar    1  UNL1       -0.3527
      6 C          -1.6861    0.1383    0.0600 C.ar    1  UNL1        0.0742
      7 C          -2.3404    0.9299   -0.9091 C.ar    1  UNL1        0.0931
      8 N          -1.7043    1.5644   -1.9194 N.ar    1  UNL1       -0.2525
      9 C          -0.3625    1.3919   -1.9494 C.ar    1  UNL1        0.0361
     10 C           0.4104    0.6428   -1.0609 C.ar    1  UNL1        0.0036
     11 C           1.8467    0.5434   -1.2095 C.ar    1  UNL1       -0.0421
     12 C           2.7140   -0.1941   -0.3538 C.ar    1  UNL1        0.0185
     13 C           4.1645   -0.3117   -0.4867 C.ar    1  UNL1        0.1089
     14 N           4.8945   -1.2973    0.0010 N.ar    1  UNL1       -0.2473
     15 C           6.2289   -1.1059   -0.2946 C.ar    1  UNL1        0.0354
     16 C           6.5197    0.0349   -1.0057 C.ar    1  UNL1       -0.0042
     17 S           5.0773    0.8996   -1.3174 S.2     1  UNL1       -0.0756
     18 C           1.9791   -0.8238    0.6580 C.ar    1  UNL1        0.0302
     19 C           2.4393   -1.6170    1.6792 C.ar    1  UNL1        0.1001
     20 O           1.3962   -2.0250    2.4588 O.2     1  UNL1       -0.4698
     21 C           0.2550   -1.4884    1.9339 C.ar    1  UNL1        0.1001
     22 C           0.5550   -0.7378    0.8259 C.ar    1  UNL1        0.0303
     23 C          -0.2990   -0.0114   -0.0100 C.ar    1  UNL1        0.0197
     24 C          -3.6973    0.9016   -0.5975 C.ar    1  UNL1        0.0070
     25 H          -5.3097    1.0315   -2.0067 H       1  UNL1        0.0357
     26 H          -5.1009    2.4826   -0.9618 H       1  UNL1        0.0357
     27 H          -6.9704    0.8531    0.1234 H       1  UNL1        0.0576
     28 H          -5.5247   -0.5679    1.8077 H       1  UNL1        0.0635
     29 H          -2.4991   -0.9462    1.7253 H       1  UNL1        0.1660
     30 H           0.1128    1.9173   -2.7764 H       1  UNL1        0.0836
     31 H           2.2898    1.0717   -2.0562 H       1  UNL1        0.0631
     32 H           6.9553   -1.8377    0.0375 H       1  UNL1        0.0835
     33 H           7.4817    0.3904   -1.3452 H       1  UNL1        0.0709
     34 H           3.4126   -1.9752    1.9864 H       1  UNL1        0.1036
     35 H          -0.6424   -1.7456    2.4736 H       1  UNL1        0.1036
@<TRIPOS>BOND
     1     1     2    1
     2     2     3    2
     3     3     4    1
     4     4     5   ar
     5     5     6   ar
     6     6     7   ar
     7     7     8   ar
     8     8     9   ar
     9     9    10   ar
    10    10    11   ar
    11    11    12   ar
    12    12    13    1
    13    13    14   ar
    14    14    15   ar
    15    15    16   ar
    16    16    17   ar
    17    12    18   ar
    18    18    19   ar
    19    19    20   ar
    20    20    21   ar
    21    21    22   ar
    22    22    23   ar
    23     7    24   ar
    24    24     1    1
    25    24     4   ar
    26    23     6   ar
    27    23    10   ar
    28    17    13   ar
    29    22    18   ar
    30     1    25    1
    31     1    26    1
    32     2    27    1
    33     3    28    1
    34     5    29    1
    35     9    30    1
    36    11    31    1
    37    15    32    1
    38    16    33    1
    39    19    34    1
    40    21    35    1
