@<TRIPOS>MOLECULE
*****
 29 33 0 0 0
SMALL
GASTEIGER

@<TRIPOS>ATOM
      1 C          -4.7051    0.9937   -0.5267 C.3     1  UNL1        0.0000
      2 C          -5.5718   -0.2017   -0.0345 C.2     1  UNL1        0.0000
      3 C          -4.8250   -1.2316    0.4439 C.2     1  UNL1        0.0000
      4 C          -3.5001   -0.8049    0.3051 C.ar    1  UNL1        0.0000
      5 N          -2.3019   -1.3491    0.5872 N.ar    1  UNL1        0.0000
      6 C          -1.3625   -0.3981    0.2047 C.ar    1  UNL1        0.0000
      7 C           0.0252   -0.2279    0.1807 C.ar    1  UNL1        0.0000
      8 SI          1.5728   -1.1670    0.6485 Si      1  UNL1        0.0000
      9 C           2.5866    0.3353    0.0273 C.2     1  UNL1        0.0000
     10 C           1.7911    1.3283   -0.4368 C.2     1  UNL1        0.0000
     11 C           0.4058    0.9920   -0.3399 C.ar    1  UNL1        0.0000
     12 S          -0.9094    1.9674   -0.8152 S.2     1  UNL1        0.0000
     13 C          -2.0122    0.7199   -0.3088 C.ar    1  UNL1        0.0000
     14 C          -3.3822    0.4381   -0.2352 C.ar    1  UNL1        0.0000
     15 C           4.0017    0.2984    0.0951 C.ar    1  UNL1        0.0000
     16 N           4.7232   -0.7071    0.5619 N.ar    1  UNL1        0.0000
     17 C           6.0735   -0.4318    0.4906 C.ar    1  UNL1        0.0000
     18 C           6.3990    0.7949   -0.0348 C.ar    1  UNL1        0.0000
     19 S           4.9725    1.6352   -0.4551 S.2     1  UNL1        0.0000
     20 H          -4.8651    1.1700   -1.5935 H       1  UNL1        0.0000
     21 H          -4.9250    1.8923    0.0552 H       1  UNL1        0.0000
     22 H          -6.6511   -0.1905   -0.0786 H       1  UNL1        0.0000
     23 H          -5.1755   -2.1710    0.8427 H       1  UNL1        0.0000
     24 H          -2.0789   -2.2500    0.9900 H       1  UNL1        0.0000
     25 H           1.6727   -1.3791    2.1168 H       1  UNL1        0.0000
     26 H           1.7566   -2.3863   -0.1823 H       1  UNL1        0.0000
     27 H           2.1225    2.2767   -0.8402 H       1  UNL1        0.0000
     28 H           6.7843   -1.1707    0.8402 H       1  UNL1        0.0000
     29 H           7.3783    1.2245   -0.1872 H       1  UNL1        0.0000
@<TRIPOS>BOND
     1     1     2    1
     2     2     3    2
     3     3     4    1
     4     4     5   ar
     5     5     6   ar
     6     6     7   ar
     7     7     8    1
     8     8     9    1
     9     9    10    2
    10    10    11    1
    11    11    12   ar
    12    12    13   ar
    13    13    14   ar
    14     9    15    1
    15    15    16   ar
    16    16    17   ar
    17    17    18   ar
    18    18    19   ar
    19    14     1    1
    20    19    15   ar
    21    14     4   ar
    22    13     6   ar
    23    11     7   ar
    24     1    20    1
    25     1    21    1
    26     2    22    1
    27     3    23    1
    28     5    24    1
    29     8    25    1
    30     8    26    1
    31    10    27    1
    32    17    28    1
    33    18    29    1
