@<TRIPOS>MOLECULE
*****
 36 41 0 0 0
SMALL
GASTEIGER

@<TRIPOS>ATOM
      1 C          -5.4702   -1.0870   -0.9036 C.3     1  UNL1       -0.0036
      2 C          -6.4796   -0.4259    0.0820 C.2     1  UNL1       -0.0776
      3 C          -5.8744    0.3625    1.0097 C.2     1  UNL1       -0.0416
      4 C          -4.5090    0.2777    0.7141 C.ar    1  UNL1        0.0465
      5 N          -3.3911    0.8189    1.2559 N.ar    1  UNL1       -0.3516
      6 C          -2.3451    0.3330    0.4900 C.ar    1  UNL1        0.0899
      7 C          -0.9687    0.3364    0.3062 C.ar    1  UNL1        0.0261
      8 C           0.2810    0.8843    0.8353 C.3     1  UNL1        0.0038
      9 C           1.2725    0.2045   -0.1449 C.2     1  UNL1       -0.0317
     10 C           0.6369   -0.5679   -1.0665 C.2     1  UNL1       -0.0149
     11 C          -0.7406   -0.4820   -0.7714 C.ar    1  UNL1        0.1344
     12 O          -1.8787   -1.0068   -1.2901 O.2     1  UNL1       -0.4532
     13 C          -2.8615   -0.4877   -0.4914 C.ar    1  UNL1        0.1574
     14 C          -4.2378   -0.5282   -0.3560 C.ar    1  UNL1        0.0239
     15 C           2.7020    0.4487   -0.0564 C.ar    1  UNL1       -0.0132
     16 C           3.2694    1.7449    0.0162 C.ar    1  UNL1       -0.0537
     17 C           4.6759    2.0037    0.1017 C.ar    1  UNL1       -0.0606
     18 C           5.6615    0.9958    0.1338 C.ar    1  UNL1       -0.0535
     19 C           5.1017   -0.2805    0.0803 C.ar    1  UNL1       -0.0103
     20 C           5.8711   -1.4169    0.1177 C.ar    1  UNL1       -0.0166
     21 S           4.8961   -2.8295    0.0692 S.2     1  UNL1       -0.1039
     22 C           3.4415   -1.9133    0.0010 C.ar    1  UNL1       -0.0160
     23 C           3.6849   -0.5584   -0.0101 C.ar    1  UNL1       -0.0035
     24 H          -5.6667   -0.7613   -1.9283 H       1  UNL1        0.0357
     25 H          -5.5156   -2.1762   -0.8245 H       1  UNL1        0.0357
     26 H          -7.5449   -0.5924    0.0146 H       1  UNL1        0.0576
     27 H          -6.3426    0.9287    1.8001 H       1  UNL1        0.0635
     28 H          -3.2903    1.4439    2.0451 H       1  UNL1        0.1660
     29 H           0.4693    0.5673    1.8651 H       1  UNL1        0.0363
     30 H           0.3165    1.9741    0.7529 H       1  UNL1        0.0363
     31 H           1.0642   -1.1327   -1.8801 H       1  UNL1        0.0657
     32 H           2.6074    2.6112   -0.0147 H       1  UNL1        0.0624
     33 H           5.0013    3.0440    0.1409 H       1  UNL1        0.0618
     34 H           6.7194    1.2128    0.1999 H       1  UNL1        0.0624
     35 H           6.9469   -1.5070    0.1785 H       1  UNL1        0.0699
     36 H           2.4974   -2.4388   -0.0240 H       1  UNL1        0.0700
@<TRIPOS>BOND
     1     1     2    1
     2     2     3    2
     3     3     4    1
     4     4     5   ar
     5     5     6   ar
     6     6     7   ar
     7     7     8    1
     8     8     9    1
     9     9    10    2
    10    10    11    1
    11    11    12   ar
    12    12    13   ar
    13    13    14   ar
    14     9    15    1
    15    15    16   ar
    16    16    17   ar
    17    17    18   ar
    18    18    19   ar
    19    19    20   ar
    20    20    21   ar
    21    21    22   ar
    22    22    23   ar
    23    14     1    1
    24    23    15   ar
    25    14     4   ar
    26    23    19   ar
    27    13     6   ar
    28    11     7   ar
    29     1    24    1
    30     1    25    1
    31     2    26    1
    32     3    27    1
    33     5    28    1
    34     8    29    1
    35     8    30    1
    36    10    31    1
    37    16    32    1
    38    17    33    1
    39    18    34    1
    40    20    35    1
    41    22    36    1
