@<TRIPOS>MOLECULE
*****
 38 43 0 0 0
SMALL
GASTEIGER

@<TRIPOS>ATOM
      1 SI         -1.3382    1.8145    3.4302 Si      1  UNL1        0.0000
      2 C          -2.5643    1.2957    2.1247 C.2     1  UNL1        0.0000
      3 C          -1.9665    0.6959    1.0724 C.ar    1  UNL1        0.0000
      4 C          -2.6577    0.1680   -0.1325 C.ar    1  UNL1        0.0000
      5 C          -1.9003   -0.3576   -1.1287 C.ar    1  UNL1        0.0000
      6 C          -0.4842   -0.4062   -0.9812 C.ar    1  UNL1        0.0000
      7 O           0.3887   -0.9176   -1.9027 O.2     1  UNL1        0.0000
      8 C           1.6455   -0.7913   -1.3973 C.ar    1  UNL1        0.0000
      9 C           2.8072   -1.2017   -2.0505 C.ar    1  UNL1        0.0000
     10 C           4.0269   -0.9975   -1.3849 C.ar    1  UNL1        0.0000
     11 C           5.2390   -1.3804   -1.9700 C.ar    1  UNL1        0.0000
     12 C           6.4177   -1.1593   -1.2756 C.ar    1  UNL1        0.0000
     13 N           6.4747   -0.5910   -0.0549 N.ar    1  UNL1        0.0000
     14 C           5.2938   -0.2266    0.4966 C.ar    1  UNL1        0.0000
     15 C           4.0463   -0.3990   -0.1073 C.ar    1  UNL1        0.0000
     16 C           2.8455    0.0026    0.5195 C.ar    1  UNL1        0.0000
     17 C           1.6178   -0.1979   -0.1405 C.ar    1  UNL1        0.0000
     18 C           0.2447    0.0456    0.1158 C.ar    1  UNL1        0.0000
     19 C          -0.4734    0.6271    1.2048 C.ar    1  UNL1        0.0000
     20 C           0.0224    1.1446    2.3446 C.2     1  UNL1        0.0000
     21 C          -4.1297    0.1511   -0.3369 C.ar    1  UNL1        0.0000
     22 N          -4.9035   -0.1251    0.7169 N.ar    1  UNL1        0.0000
     23 C          -6.2079   -0.1479    0.4583 C.ar    1  UNL1        0.0000
     24 N          -6.7772    0.0767   -0.7222 N.ar    1  UNL1        0.0000
     25 C          -5.9100    0.3362   -1.6960 C.ar    1  UNL1        0.0000
     26 N          -4.5864    0.3827   -1.5741 N.ar    1  UNL1        0.0000
     27 H          -1.2598    3.2867    3.5837 H       1  UNL1        0.0000
     28 H          -1.4832    1.0458    4.6891 H       1  UNL1        0.0000
     29 H          -3.6166    1.4817    2.2678 H       1  UNL1        0.0000
     30 H          -2.3280   -0.7657   -2.0386 H       1  UNL1        0.0000
     31 H           2.7499   -1.6580   -3.0321 H       1  UNL1        0.0000
     32 H           5.2734   -1.8441   -2.9504 H       1  UNL1        0.0000
     33 H           7.3768   -1.4438   -1.6992 H       1  UNL1        0.0000
     34 H           5.3837    0.2274    1.4804 H       1  UNL1        0.0000
     35 H           2.8709    0.4612    1.5022 H       1  UNL1        0.0000
     36 H           1.0510    1.2115    2.6524 H       1  UNL1        0.0000
     37 H          -6.8693   -0.3703    1.2888 H       1  UNL1        0.0000
     38 H          -6.3196    0.5260   -2.6824 H       1  UNL1        0.0000
@<TRIPOS>BOND
     1     1     2    1
     2     2     3    2
     3     3     4   ar
     4     4     5   ar
     5     5     6   ar
     6     6     7   ar
     7     7     8   ar
     8     8     9   ar
     9     9    10   ar
    10    10    11   ar
    11    11    12   ar
    12    12    13   ar
    13    13    14   ar
    14    14    15   ar
    15    15    16   ar
    16    16    17   ar
    17    17    18   ar
    18    18    19   ar
    19    19    20    2
    20     4    21    1
    21    21    22   ar
    22    22    23   ar
    23    23    24   ar
    24    24    25   ar
    25    25    26   ar
    26    20     1    1
    27    26    21   ar
    28    19     3   ar
    29    18     6   ar
    30    17     8   ar
    31    15    10   ar
    32     1    27    1
    33     1    28    1
    34     2    29    1
    35     5    30    1
    36     9    31    1
    37    11    32    1
    38    12    33    1
    39    14    34    1
    40    16    35    1
    41    20    36    1
    42    23    37    1
    43    25    38    1
