@<TRIPOS>MOLECULE
*****
 38 43 0 0 0
SMALL
GASTEIGER

@<TRIPOS>ATOM
      1 C          -5.0189    0.7292    0.3723 C.3     1  UNL1       -0.0065
      2 C          -5.2426    2.2454    0.6226 C.2     1  UNL1       -0.0777
      3 C          -4.0807    2.9433    0.6923 C.2     1  UNL1       -0.0417
      4 C          -3.0796    1.9855    0.5031 C.ar    1  UNL1        0.0436
      5 N          -1.7216    2.0380    0.4625 N.ar    1  UNL1       -0.3515
      6 C          -1.3027    0.7469    0.2410 C.ar    1  UNL1        0.0913
      7 C           0.1079    0.1460    0.0939 C.ar    1  UNL1        0.1601
      8 O           1.3261    0.7422    0.1451 O.2     1  UNL1       -0.4527
      9 C           2.2631   -0.2570   -0.0486 C.ar    1  UNL1        0.1364
     10 C           1.6311   -1.4868   -0.2222 C.ar    1  UNL1       -0.0074
     11 C           0.2772   -1.1955   -0.1266 C.ar    1  UNL1        0.0320
     12 C          -0.9015   -1.9825   -0.2098 C.ar    1  UNL1        0.0109
     13 C          -1.0057   -3.3285   -0.4212 C.ar    1  UNL1        0.0101
     14 N          -2.3668   -3.6044   -0.4161 N.ar    1  UNL1       -0.3659
     15 C          -3.1033   -2.4469   -0.2044 C.ar    1  UNL1        0.0101
     16 C          -2.1856   -1.4432   -0.0772 C.ar    1  UNL1        0.0096
     17 C          -2.4209   -0.0637    0.1518 C.ar    1  UNL1        0.0165
     18 C          -3.5464    0.7066    0.3156 C.ar    1  UNL1       -0.0105
     19 C           3.6640    0.1668   -0.0319 C.ar    1  UNL1        0.0173
     20 C           4.0175    1.5101    0.1695 C.ar    1  UNL1       -0.0511
     21 C           5.3576    1.9085    0.1843 C.ar    1  UNL1       -0.0611
     22 C           6.3666    0.9678   -0.0024 C.ar    1  UNL1       -0.0617
     23 C           6.0364   -0.3698   -0.2036 C.ar    1  UNL1       -0.0611
     24 C           4.6954   -0.7667   -0.2182 C.ar    1  UNL1       -0.0511
     25 H          -5.4135    0.1399    1.2041 H       1  UNL1        0.0356
     26 H          -5.4775    0.4237   -0.5719 H       1  UNL1        0.0356
     27 H          -6.2277    2.6759    0.7269 H       1  UNL1        0.0576
     28 H          -3.9553    4.0023    0.8570 H       1  UNL1        0.0635
     29 H          -1.1256    2.8476    0.5703 H       1  UNL1        0.1660
     30 H           2.1062   -2.4405   -0.3919 H       1  UNL1        0.0662
     31 H          -0.2799   -4.1148   -0.5731 H       1  UNL1        0.0813
     32 H          -2.7675   -4.5236   -0.5486 H       1  UNL1        0.1648
     33 H          -4.1832   -2.4718   -0.1694 H       1  UNL1        0.0813
     34 H           3.2478    2.2645    0.3178 H       1  UNL1        0.0625
     35 H           5.6094    2.9540    0.3419 H       1  UNL1        0.0618
     36 H           7.4084    1.2767    0.0090 H       1  UNL1        0.0618
     37 H           6.8216   -1.1071   -0.3498 H       1  UNL1        0.0618
     38 H           4.4702   -1.8179   -0.3776 H       1  UNL1        0.0625
@<TRIPOS>BOND
     1     1     2    1
     2     2     3    2
     3     3     4    1
     4     4     5   ar
     5     5     6   ar
     6     6     7   ar
     7     7     8   ar
     8     8     9   ar
     9     9    10   ar
    10    10    11   ar
    11    11    12   ar
    12    12    13   ar
    13    13    14   ar
    14    14    15   ar
    15    15    16   ar
    16    16    17   ar
    17    17    18   ar
    18     9    19    1
    19    19    20   ar
    20    20    21   ar
    21    21    22   ar
    22    22    23   ar
    23    23    24   ar
    24    18     1    1
    25    24    19   ar
    26    18     4   ar
    27    17     6   ar
    28    11     7   ar
    29    16    12   ar
    30     1    25    1
    31     1    26    1
    32     2    27    1
    33     3    28    1
    34     5    29    1
    35    10    30    1
    36    13    31    1
    37    14    32    1
    38    15    33    1
    39    20    34    1
    40    21    35    1
    41    22    36    1
    42    23    37    1
    43    24    38    1
