@<TRIPOS>MOLECULE
*****
 40 46 0 0 0
SMALL
GASTEIGER

@<TRIPOS>ATOM
      1 C          -4.7624    1.7812   -0.8634 C.3     1  UNL1       -0.0065
      2 C          -4.8484    3.2785   -0.4685 C.2     1  UNL1       -0.0777
      3 C          -3.6735    3.7606    0.0075 C.2     1  UNL1       -0.0417
      4 C          -2.7998    2.6722   -0.0440 C.ar    1  UNL1        0.0435
      5 N          -1.5040    2.4895    0.2787 N.ar    1  UNL1       -0.3535
      6 C          -1.2262    1.1721   -0.0095 C.ar    1  UNL1        0.0623
      7 C           0.1166    0.4238    0.1700 C.ar    1  UNL1        0.0444
      8 S           1.5330    1.1076    0.7837 S.2     1  UNL1       -0.0860
      9 C           2.3868   -0.3657    0.5952 C.ar    1  UNL1        0.0241
     10 C           1.5635   -1.3567    0.0879 C.ar    1  UNL1       -0.0384
     11 C           0.2198   -0.9091   -0.1777 C.ar    1  UNL1       -0.0005
     12 C          -0.9579   -1.5445   -0.6991 C.ar    1  UNL1       -0.0089
     13 C          -0.8965   -2.9043   -1.0666 C.ar    1  UNL1       -0.0534
     14 C          -2.0193   -3.5614   -1.5773 C.ar    1  UNL1       -0.0611
     15 C          -3.2249   -2.8815   -1.7332 C.ar    1  UNL1       -0.0611
     16 C          -3.3240   -1.5349   -1.3810 C.ar    1  UNL1       -0.0534
     17 C          -2.2097   -0.8468   -0.8641 C.ar    1  UNL1       -0.0078
     18 C          -2.3496    0.5233   -0.5180 C.ar    1  UNL1        0.0125
     19 C          -3.3456    1.5149   -0.5270 C.ar    1  UNL1       -0.0106
     20 C           3.7780   -0.4658    1.0021 C.ar    1  UNL1        0.0350
     21 C           4.2398   -1.3821    1.9530 C.ar    1  UNL1        0.0380
     22 N           5.5309   -1.5602    2.3882 N.ar    1  UNL1       -0.2604
     23 C           6.5457   -0.7976    1.8855 C.ar    1  UNL1        0.0557
     24 C           6.2327    0.1656    0.9053 C.ar    1  UNL1        0.1185
     25 N           7.0965    0.9931    0.2952 N.ar    1  UNL1       -0.1892
     26 S           6.2030    1.8979   -0.7713 S.2     1  UNL1        0.1165
     27 N           4.6878    1.2807   -0.5072 N.ar    1  UNL1       -0.1900
     28 C           4.8052    0.3364    0.4449 C.ar    1  UNL1        0.1110
     29 H          -5.4513    1.1840   -0.2601 H       1  UNL1        0.0356
     30 H          -4.9670    1.6521   -1.9295 H       1  UNL1        0.0356
     31 H          -5.7562    3.8550   -0.5707 H       1  UNL1        0.0576
     32 H          -3.4601    4.7616    0.3495 H       1  UNL1        0.0635
     33 H          -0.8527    3.1668    0.6529 H       1  UNL1        0.1659
     34 H           1.9104   -2.3657   -0.0977 H       1  UNL1        0.0635
     35 H           0.0238   -3.4723   -0.9630 H       1  UNL1        0.0624
     36 H          -1.9509   -4.6104   -1.8554 H       1  UNL1        0.0618
     37 H          -4.0926   -3.4011   -2.1318 H       1  UNL1        0.0618
     38 H          -4.2771   -1.0311   -1.5148 H       1  UNL1        0.0624
     39 H           3.5310   -2.0522    2.4414 H       1  UNL1        0.0836
     40 H           7.5451   -0.9735    2.2609 H       1  UNL1        0.0852
@<TRIPOS>BOND
     1     1     2    1
     2     2     3    2
     3     3     4    1
     4     4     5   ar
     5     5     6   ar
     6     6     7   ar
     7     7     8   ar
     8     8     9   ar
     9     9    10   ar
    10    10    11   ar
    11    11    12   ar
    12    12    13   ar
    13    13    14   ar
    14    14    15   ar
    15    15    16   ar
    16    16    17   ar
    17    17    18   ar
    18    18    19   ar
    19     9    20    1
    20    20    21   ar
    21    21    22   ar
    22    22    23   ar
    23    23    24   ar
    24    24    25   ar
    25    25    26   ar
    26    26    27   ar
    27    27    28   ar
    28    19     1    1
    29    28    20   ar
    30    19     4   ar
    31    28    24   ar
    32    18     6   ar
    33    11     7   ar
    34    17    12   ar
    35     1    29    1
    36     1    30    1
    37     2    31    1
    38     3    32    1
    39     5    33    1
    40    10    34    1
    41    13    35    1
    42    14    36    1
    43    15    37    1
    44    16    38    1
    45    21    39    1
    46    23    40    1
