@<TRIPOS>MOLECULE
*****
 39 45 0 0 0
SMALL
GASTEIGER

@<TRIPOS>ATOM
      1 C           5.6879   -0.0508    0.4787 C.3     1  UNL1        0.0000
      2 C           6.3408   -0.9010   -0.6438 C.2     1  UNL1        0.0000
      3 C           5.4268   -1.5264   -1.4281 C.2     1  UNL1        0.0000
      4 C           4.1885   -1.1480   -0.9005 C.ar    1  UNL1        0.0000
      5 N           2.9004   -1.4319   -1.2287 N.ar    1  UNL1        0.0000
      6 C           2.1190   -0.7499   -0.3208 C.ar    1  UNL1        0.0000
      7 C           0.5774   -0.6642   -0.1627 C.ar    1  UNL1        0.0000
      8 S          -0.6174   -1.4077   -1.0932 S.2     1  UNL1        0.0000
      9 C          -1.8782   -0.7000   -0.1366 C.ar    1  UNL1        0.0000
     10 C          -1.3745    0.0971    0.8839 C.ar    1  UNL1        0.0000
     11 C           0.0264    0.0942    0.8393 C.ar    1  UNL1        0.0000
     12 C           0.9495    0.7714    1.6928 C.ar    1  UNL1        0.0000
     13 C           0.6936    1.5844    2.7592 C.ar    1  UNL1        0.0000
     14 O           1.8968    2.0145    3.2794 O.2     1  UNL1        0.0000
     15 C           2.9060    1.4565    2.5226 C.ar    1  UNL1        0.0000
     16 C           2.3355    0.6933    1.5479 C.ar    1  UNL1        0.0000
     17 C           2.9616   -0.0681    0.5387 C.ar    1  UNL1        0.0000
     18 C           4.2661   -0.3098    0.1848 C.ar    1  UNL1        0.0000
     19 C          -3.2647   -0.9328   -0.4376 C.ar    1  UNL1        0.0000
     20 S          -3.9245   -2.5306   -0.5473 S.2     1  UNL1        0.0000
     21 C          -5.5204   -1.9568   -0.8773 C.ar    1  UNL1        0.0000
     22 C          -5.5444   -0.5891   -0.9030 C.ar    1  UNL1        0.0000
     23 C          -6.6242    0.3192   -1.1405 C.2     1  UNL1        0.0000
     24 C          -6.2842    1.6262   -1.1026 C.2     1  UNL1        0.0000
     25 SI         -4.4175    1.8496   -0.7376 Si      1  UNL1        0.0000
     26 C          -4.2636   -0.0273   -0.6515 C.ar    1  UNL1        0.0000
     27 H           5.9515    1.0040    0.3653 H       1  UNL1        0.0000
     28 H           5.9841   -0.4213    1.4636 H       1  UNL1        0.0000
     29 H           7.4116   -0.9726   -0.7679 H       1  UNL1        0.0000
     30 H           5.6134   -2.1729   -2.2718 H       1  UNL1        0.0000
     31 H           2.5675   -2.0214   -1.9802 H       1  UNL1        0.0000
     32 H          -1.9924    0.6221    1.6007 H       1  UNL1        0.0000
     33 H          -0.1886    1.9497    3.2642 H       1  UNL1        0.0000
     34 H           3.9123    1.7102    2.8216 H       1  UNL1        0.0000
     35 H          -6.3292   -2.6569   -1.0318 H       1  UNL1        0.0000
     36 H          -7.6332   -0.0259   -1.3355 H       1  UNL1        0.0000
     37 H          -6.9251    2.4801   -1.2519 H       1  UNL1        0.0000
     38 H          -3.7264    2.4684   -1.8954 H       1  UNL1        0.0000
     39 H          -4.2084    2.5244    0.5684 H       1  UNL1        0.0000
@<TRIPOS>BOND
     1     1     2    1
     2     2     3    2
     3     3     4    1
     4     4     5   ar
     5     5     6   ar
     6     6     7   ar
     7     7     8   ar
     8     8     9   ar
     9     9    10   ar
    10    10    11   ar
    11    11    12   ar
    12    12    13   ar
    13    13    14   ar
    14    14    15   ar
    15    15    16   ar
    16    16    17   ar
    17    17    18   ar
    18     9    19    1
    19    19    20   ar
    20    20    21   ar
    21    21    22   ar
    22    22    23    1
    23    23    24    2
    24    24    25    1
    25    25    26    1
    26    18     1    1
    27    26    19   ar
    28    18     4   ar
    29    26    22   ar
    30    17     6   ar
    31    11     7   ar
    32    16    12   ar
    33     1    27    1
    34     1    28    1
    35     2    29    1
    36     3    30    1
    37     5    31    1
    38    10    32    1
    39    13    33    1
    40    15    34    1
    41    21    35    1
    42    23    36    1
    43    24    37    1
    44    25    38    1
    45    25    39    1
