@<TRIPOS>MOLECULE
*****
 37 41 0 0 0
SMALL
GASTEIGER

@<TRIPOS>ATOM
      1 C          -4.7740   -1.1458    0.0626 C.3     1  UNL1        0.0000
      2 C          -5.6957   -0.0346    0.5310 C.2     1  UNL1        0.0000
      3 C          -4.9860    1.0463    0.9077 C.2     1  UNL1        0.0000
      4 C          -3.6032    0.7469    0.7260 C.2     1  UNL1        0.0000
      5 C          -3.4451   -0.4981    0.2437 C.2     1  UNL1        0.0000
      6 C          -2.0927   -0.9319    0.0116 C.2     1  UNL1        0.0000
      7 C          -1.1772    0.0149    0.3216 C.2     1  UNL1        0.0000
      8 SI         -2.0269    1.6262    0.9810 Si      1  UNL1        0.0000
      9 C           0.2795   -0.0775    0.2234 C.ar    1  UNL1        0.0000
     10 C           0.9540   -0.5530    1.3569 C.ar    1  UNL1        0.0000
     11 C           2.3362   -0.6613    1.3263 C.ar    1  UNL1        0.0000
     12 SI          3.4734   -1.2555    2.6963 Si      1  UNL1        0.0000
     13 C           4.9128   -0.9604    1.5458 C.2     1  UNL1        0.0000
     14 C           4.5381   -0.4935    0.3413 C.2     1  UNL1        0.0000
     15 C           3.0752   -0.3084    0.1702 C.ar    1  UNL1        0.0000
     16 C           2.4144    0.1586   -0.9890 C.ar    1  UNL1        0.0000
     17 C           3.1018    0.5174   -2.1728 C.ar    1  UNL1        0.0000
     18 C           2.4281    0.9692   -3.3075 C.ar    1  UNL1        0.0000
     19 C           1.0473    1.0722   -3.2899 C.ar    1  UNL1        0.0000
     20 C           0.3433    0.7266   -2.1361 C.ar    1  UNL1        0.0000
     21 C           0.9941    0.2699   -0.9641 C.ar    1  UNL1        0.0000
     22 H          -4.8839   -2.0347    0.6906 H       1  UNL1        0.0000
     23 H          -4.9664   -1.3971   -0.9844 H       1  UNL1        0.0000
     24 H          -6.7723   -0.1151    0.5530 H       1  UNL1        0.0000
     25 H          -5.3878    1.9758    1.2810 H       1  UNL1        0.0000
     26 H          -1.8562   -1.9157   -0.3713 H       1  UNL1        0.0000
     27 H          -1.8235    2.7710    0.0557 H       1  UNL1        0.0000
     28 H          -1.6950    1.8680    2.4097 H       1  UNL1        0.0000
     29 H           0.3979   -0.8327    2.2492 H       1  UNL1        0.0000
     30 H           3.2909   -2.6935    3.0155 H       1  UNL1        0.0000
     31 H           3.4902   -0.3427    3.8666 H       1  UNL1        0.0000
     32 H           5.9254   -1.1600    1.8611 H       1  UNL1        0.0000
     33 H           5.2423   -0.2682   -0.4468 H       1  UNL1        0.0000
     34 H           4.1845    0.4474   -2.2292 H       1  UNL1        0.0000
     35 H           2.9853    1.2358   -4.2015 H       1  UNL1        0.0000
     36 H           0.5120    1.4187   -4.1696 H       1  UNL1        0.0000
     37 H          -0.7409    0.8150   -2.1654 H       1  UNL1        0.0000
@<TRIPOS>BOND
     1     1     2    1
     2     2     3    2
     3     3     4    1
     4     4     5    2
     5     5     6    1
     6     6     7    2
     7     7     8    1
     8     7     9    1
     9     9    10   ar
    10    10    11   ar
    11    11    12    1
    12    12    13    1
    13    13    14    2
    14    14    15    1
    15    15    16   ar
    16    16    17   ar
    17    17    18   ar
    18    18    19   ar
    19    19    20   ar
    20    20    21   ar
    21     5     1    1
    22    21     9   ar
    23     8     4    1
    24    15    11   ar
    25    21    16   ar
    26     1    22    1
    27     1    23    1
    28     2    24    1
    29     3    25    1
    30     6    26    1
    31     8    27    1
    32     8    28    1
    33    10    29    1
    34    12    30    1
    35    12    31    1
    36    13    32    1
    37    14    33    1
    38    17    34    1
    39    18    35    1
    40    19    36    1
    41    20    37    1
