@<TRIPOS>MOLECULE
*****
 32 36 0 0 0
SMALL
GASTEIGER

@<TRIPOS>ATOM
      1 C           4.8026    1.2063    0.1673 C.3     1  UNL1        0.0000
      2 C           5.8161    0.1238   -0.1555 C.2     1  UNL1        0.0000
      3 C           5.1973   -1.0312   -0.4667 C.2     1  UNL1        0.0000
      4 C           3.7911   -0.8111   -0.3776 C.2     1  UNL1        0.0000
      5 C           3.5286    0.4569   -0.0175 C.2     1  UNL1        0.0000
      6 C           2.1383    0.8123    0.1088 C.2     1  UNL1        0.0000
      7 C           1.3043   -0.2177   -0.1636 C.2     1  UNL1        0.0000
      8 SI          2.2845   -1.8065   -0.6272 Si      1  UNL1        0.0000
      9 C          -0.1104   -0.1918   -0.1295 C.ar    1  UNL1        0.0000
     10 C          -0.9722    0.8673    0.1861 C.ar    1  UNL1        0.0000
     11 C          -2.2524    0.3513    0.0642 C.ar    1  UNL1        0.0000
     12 C          -2.2082   -0.9688   -0.3098 C.ar    1  UNL1        0.0000
     13 C          -3.3285   -1.8044   -0.5252 C.ar    1  UNL1        0.0000
     14 C          -4.6361   -1.2858   -0.3543 C.ar    1  UNL1        0.0000
     15 C          -4.6343    0.0551    0.0248 C.ar    1  UNL1        0.0000
     16 C          -5.7327    0.8436    0.2682 C.ar    1  UNL1        0.0000
     17 O          -5.3353    2.1145    0.6202 O.2     1  UNL1        0.0000
     18 C          -3.9598    2.1430    0.6026 C.ar    1  UNL1        0.0000
     19 C          -3.5384    0.9039    0.2444 C.ar    1  UNL1        0.0000
     20 O          -0.8918   -1.3067   -0.4299 O.2     1  UNL1        0.0000
     21 H           4.9228    1.5596    1.1955 H       1  UNL1        0.0000
     22 H           4.8890    2.0431   -0.5319 H       1  UNL1        0.0000
     23 H           6.8852    0.2745   -0.1343 H       1  UNL1        0.0000
     24 H           5.6760   -1.9603   -0.7361 H       1  UNL1        0.0000
     25 H           1.8363    1.8105    0.3938 H       1  UNL1        0.0000
     26 H           2.0802   -2.2101   -2.0438 H       1  UNL1        0.0000
     27 H           2.1268   -2.8886    0.3807 H       1  UNL1        0.0000
     28 H          -0.6732    1.8674    0.4632 H       1  UNL1        0.0000
     29 H          -3.1799   -2.8387   -0.8204 H       1  UNL1        0.0000
     30 H          -5.5241   -1.8850   -0.5072 H       1  UNL1        0.0000
     31 H          -6.8022    0.6883    0.2442 H       1  UNL1        0.0000
     32 H          -3.4996    3.0853    0.8605 H       1  UNL1        0.0000
@<TRIPOS>BOND
     1     1     2    1
     2     2     3    2
     3     3     4    1
     4     4     5    2
     5     5     6    1
     6     6     7    2
     7     7     8    1
     8     7     9    1
     9     9    10   ar
    10    10    11   ar
    11    11    12   ar
    12    12    13   ar
    13    13    14   ar
    14    14    15   ar
    15    15    16   ar
    16    16    17   ar
    17    17    18   ar
    18    18    19   ar
    19    12    20   ar
    20     5     1    1
    21    20     9   ar
    22     8     4    1
    23    19    11   ar
    24    19    15   ar
    25     1    21    1
    26     1    22    1
    27     2    23    1
    28     3    24    1
    29     6    25    1
    30     8    26    1
    31     8    27    1
    32    10    28    1
    33    13    29    1
    34    14    30    1
    35    16    31    1
    36    18    32    1
