@<TRIPOS>MOLECULE
*****
 29 32 0 0 0
SMALL
GASTEIGER

@<TRIPOS>ATOM
      1 C          -4.1057    1.1902   -0.3705 C.3     1  UNL1        0.0000
      2 C          -5.1394    0.1027   -0.1447 C.2     1  UNL1        0.0000
      3 C          -4.5416   -1.0807    0.0913 C.2     1  UNL1        0.0000
      4 C          -3.1309   -0.8759    0.0422 C.2     1  UNL1        0.0000
      5 C          -2.8448    0.4109   -0.2183 C.2     1  UNL1        0.0000
      6 C          -1.4495    0.7599   -0.3043 C.2     1  UNL1        0.0000
      7 C          -0.6202   -0.2902   -0.0965 C.2     1  UNL1        0.0000
      8 SI         -1.6486   -1.9145    0.2353 Si      1  UNL1        0.0000
      9 C           0.7914   -0.2785   -0.1279 C.ar    1  UNL1        0.0000
     10 C           1.7551   -1.2389   -0.3864 C.ar    1  UNL1        0.0000
     11 C           3.0272   -0.6353   -0.2529 C.ar    1  UNL1        0.0000
     12 N           4.2553   -1.1846   -0.4135 N.ar    1  UNL1        0.0000
     13 C           5.2823   -0.3324   -0.2089 C.ar    1  UNL1        0.0000
     14 C           5.1657    1.0071    0.1402 C.ar    1  UNL1        0.0000
     15 C           3.8991    1.5625    0.3036 C.ar    1  UNL1        0.0000
     16 C           2.8271    0.6957    0.0940 C.ar    1  UNL1        0.0000
     17 N           1.4681    0.8879    0.1654 N.ar    1  UNL1        0.0000
     18 H          -4.1937    1.9754    0.3858 H       1  UNL1        0.0000
     19 H          -4.2022    1.6186   -1.3723 H       1  UNL1        0.0000
     20 H          -6.2058    0.2699   -0.1738 H       1  UNL1        0.0000
     21 H          -5.0378   -2.0200    0.2827 H       1  UNL1        0.0000
     22 H          -1.1452    1.7702   -0.5394 H       1  UNL1        0.0000
     23 H          -1.4422   -2.4150    1.6197 H       1  UNL1        0.0000
     24 H          -1.4587   -2.9121   -0.8505 H       1  UNL1        0.0000
     25 H           1.5819   -2.2717   -0.6544 H       1  UNL1        0.0000
     26 H           6.2662   -0.7769   -0.3393 H       1  UNL1        0.0000
     27 H           6.0553    1.6116    0.2834 H       1  UNL1        0.0000
     28 H           3.7607    2.6021    0.5755 H       1  UNL1        0.0000
     29 H           1.0310    1.7618    0.4191 H       1  UNL1        0.0000
@<TRIPOS>BOND
     1     1     2    1
     2     2     3    2
     3     3     4    1
     4     4     5    2
     5     5     6    1
     6     6     7    2
     7     7     8    1
     8     7     9    1
     9     9    10   ar
    10    10    11   ar
    11    11    12   ar
    12    12    13   ar
    13    13    14   ar
    14    14    15   ar
    15    15    16   ar
    16    16    17   ar
    17     5     1    1
    18    17     9   ar
    19     8     4    1
    20    16    11   ar
    21     1    18    1
    22     1    19    1
    23     2    20    1
    24     3    21    1
    25     6    22    1
    26     8    23    1
    27     8    24    1
    28    10    25    1
    29    13    26    1
    30    14    27    1
    31    15    28    1
    32    17    29    1
