@<TRIPOS>MOLECULE
*****
 30 33 0 0 0
SMALL
GASTEIGER

@<TRIPOS>ATOM
      1 C           4.2473    1.3760    0.6065 C.3     1  UNL1        0.0000
      2 C           5.1182    0.5512   -0.3280 C.2     1  UNL1        0.0000
      3 C           4.3712   -0.3331   -1.0179 C.2     1  UNL1        0.0000
      4 C           3.0169   -0.1666   -0.6109 C.2     1  UNL1        0.0000
      5 C           2.9167    0.7955    0.3105 C.2     1  UNL1        0.0000
      6 C           1.5621    0.9645    0.7159 C.2     1  UNL1        0.0000
      7 C           0.7986    0.0843    0.0294 C.2     1  UNL1        0.0000
      8 C           1.6858   -0.7487   -0.9052 C.3     1  UNL1        0.0000
      9 C          -0.6299   -0.0583    0.1324 C.2     1  UNL1        0.0000
     10 C          -1.5224    0.9217    0.3942 C.2     1  UNL1        0.0000
     11 C          -2.9254    0.4812    0.4164 C.ar    1  UNL1        0.0000
     12 C          -4.0285    1.2783    0.6616 C.ar    1  UNL1        0.0000
     13 N          -5.2978    0.8033    0.6646 N.ar    1  UNL1        0.0000
     14 C          -5.4624   -0.5200    0.4115 C.ar    1  UNL1        0.0000
     15 C          -4.4251   -1.4057    0.1528 C.ar    1  UNL1        0.0000
     16 C          -3.1381   -0.8871    0.1571 C.ar    1  UNL1        0.0000
     17 SI         -1.5008   -1.7344   -0.1400 Si      1  UNL1        0.0000
     18 H           4.5395    1.2228    1.6492 H       1  UNL1        0.0000
     19 H           4.2981    2.4383    0.3515 H       1  UNL1        0.0000
     20 H           6.1879    0.6702   -0.4155 H       1  UNL1        0.0000
     21 H           4.7226   -1.0432   -1.7493 H       1  UNL1        0.0000
     22 H           1.2289    1.6831    1.4479 H       1  UNL1        0.0000
     23 H           1.4052   -0.6013   -1.9528 H       1  UNL1        0.0000
     24 H           1.6604   -1.8125   -0.6500 H       1  UNL1        0.0000
     25 H          -1.2675    1.9592    0.5675 H       1  UNL1        0.0000
     26 H          -3.9321    2.3396    0.8668 H       1  UNL1        0.0000
     27 H          -6.4943   -0.8612    0.4232 H       1  UNL1        0.0000
     28 H          -4.6297   -2.4521   -0.0415 H       1  UNL1        0.0000
     29 H          -1.3417   -2.2196   -1.5353 H       1  UNL1        0.0000
     30 H          -1.1639   -2.7254    0.9135 H       1  UNL1        0.0000
@<TRIPOS>BOND
     1     1     2    1
     2     2     3    2
     3     3     4    1
     4     4     5    2
     5     5     6    1
     6     6     7    2
     7     7     8    1
     8     7     9    1
     9     9    10    2
    10    10    11    1
    11    11    12   ar
    12    12    13   ar
    13    13    14   ar
    14    14    15   ar
    15    15    16   ar
    16    16    17    1
    17     5     1    1
    18    17     9    1
    19     8     4    1
    20    16    11   ar
    21     1    18    1
    22     1    19    1
    23     2    20    1
    24     3    21    1
    25     6    22    1
    26     8    23    1
    27     8    24    1
    28    10    25    1
    29    12    26    1
    30    14    27    1
    31    15    28    1
    32    17    29    1
    33    17    30    1
