@<TRIPOS>MOLECULE
*****
 37 42 0 0 0
SMALL
GASTEIGER

@<TRIPOS>ATOM
      1 C          -5.0180    1.6343   -0.1109 C.3     1  UNL1        0.0000
      2 C          -6.3309    0.9037    0.1049 C.2     1  UNL1        0.0000
      3 C          -6.1178   -0.4085    0.3175 C.2     1  UNL1        0.0000
      4 C          -4.7089   -0.6348    0.2609 C.2     1  UNL1        0.0000
      5 C          -4.0403    0.5175    0.0160 C.2     1  UNL1        0.0000
      6 C          -2.6580    0.2666   -0.0355 C.ar    1  UNL1        0.0000
      7 N          -1.6213    1.1340   -0.2598 N.ar    1  UNL1        0.0000
      8 C          -0.5005    0.3642   -0.2030 C.ar    1  UNL1        0.0000
      9 C           0.8643    0.6387   -0.3462 C.2     1  UNL1        0.0000
     10 C           1.4993   -0.5560   -0.1770 C.2     1  UNL1        0.0000
     11 C           0.4735   -1.7159    0.0818 C.3     1  UNL1        0.0000
     12 C          -0.7924   -0.9550    0.0446 C.ar    1  UNL1        0.0000
     13 C          -2.1586   -1.0179    0.1521 C.ar    1  UNL1        0.0000
     14 SI         -3.6282   -2.1458    0.4472 Si      1  UNL1        0.0000
     15 C           2.9196   -0.6566   -0.2642 C.ar    1  UNL1        0.0000
     16 S           3.6176   -2.0254   -1.0942 S.2     1  UNL1        0.0000
     17 C           5.2365   -1.4962   -0.8466 C.ar    1  UNL1        0.0000
     18 C           5.2274   -0.3370   -0.1382 C.ar    1  UNL1        0.0000
     19 SI          6.5311    0.8340    0.5467 Si      1  UNL1        0.0000
     20 C           5.1154    1.8823    1.2826 C.2     1  UNL1        0.0000
     21 C           3.9064    1.3523    0.9938 C.2     1  UNL1        0.0000
     22 C           3.9363    0.1481    0.2104 C.ar    1  UNL1        0.0000
     23 H          -4.8649    2.3965    0.6586 H       1  UNL1        0.0000
     24 H          -4.9848    2.0913   -1.1041 H       1  UNL1        0.0000
     25 H          -7.2973    1.3851    0.0871 H       1  UNL1        0.0000
     26 H          -6.8719   -1.1589    0.4984 H       1  UNL1        0.0000
     27 H          -1.6803    2.1287   -0.4317 H       1  UNL1        0.0000
     28 H           1.3034    1.6003   -0.5634 H       1  UNL1        0.0000
     29 H           0.6494   -2.1734    1.0597 H       1  UNL1        0.0000
     30 H           0.5169   -2.4664   -0.7126 H       1  UNL1        0.0000
     31 H          -3.8526   -3.1402   -0.6351 H       1  UNL1        0.0000
     32 H          -3.6838   -2.7164    1.8191 H       1  UNL1        0.0000
     33 H           6.0700   -2.0717   -1.2255 H       1  UNL1        0.0000
     34 H           7.2702    1.5934   -0.4925 H       1  UNL1        0.0000
     35 H           7.3718    0.2458    1.6191 H       1  UNL1        0.0000
     36 H           5.3234    2.7687    1.8597 H       1  UNL1        0.0000
     37 H           2.9781    1.7903    1.3411 H       1  UNL1        0.0000
@<TRIPOS>BOND
     1     1     2    1
     2     2     3    2
     3     3     4    1
     4     4     5    2
     5     5     6    1
     6     6     7   ar
     7     7     8   ar
     8     8     9    1
     9     9    10    2
    10    10    11    1
    11    11    12    1
    12    12    13   ar
    13    13    14    1
    14    10    15    1
    15    15    16   ar
    16    16    17   ar
    17    17    18   ar
    18    18    19    1
    19    19    20    1
    20    20    21    2
    21    21    22    1
    22     5     1    1
    23    13     6   ar
    24    22    15   ar
    25    14     4    1
    26    22    18   ar
    27    12     8   ar
    28     1    23    1
    29     1    24    1
    30     2    25    1
    31     3    26    1
    32     7    27    1
    33     9    28    1
    34    11    29    1
    35    11    30    1
    36    14    31    1
    37    14    32    1
    38    17    33    1
    39    19    34    1
    40    19    35    1
    41    20    36    1
    42    21    37    1
