@<TRIPOS>MOLECULE
*****
 39 45 0 0 0
SMALL
GASTEIGER

@<TRIPOS>ATOM
      1 C          -3.3940   -1.2532    2.6190 C.3     1  UNL1       -0.0066
      2 C          -4.8717   -1.3328    2.2860 C.2     1  UNL1       -0.0790
      3 C          -5.1514   -0.9903    1.0162 C.2     1  UNL1       -0.0572
      4 C          -3.8906   -0.6598    0.4020 C.ar    1  UNL1       -0.0091
      5 C          -2.8206   -0.7958    1.3000 C.ar    1  UNL1       -0.0119
      6 C          -1.5010   -0.4999    0.9037 C.ar    1  UNL1        0.0523
      7 N          -0.3245   -0.4986    1.6238 N.ar    1  UNL1       -0.3538
      8 C           0.7492   -0.1365    0.8291 C.ar    1  UNL1        0.0487
      9 C           2.1093    0.0296    1.1804 C.ar    1  UNL1       -0.0289
     10 C           3.0678    0.3671    0.2035 C.ar    1  UNL1        0.0004
     11 C           4.4677    0.5855    0.5209 C.ar    1  UNL1        0.0394
     12 C           5.2398    1.7259    0.3970 C.ar    1  UNL1        0.0425
     13 N           6.5621    1.6068    0.7818 N.ar    1  UNL1       -0.2551
     14 C           6.7777    0.3794    1.1997 C.ar    1  UNL1        0.0652
     15 S           5.4330   -0.6836    1.1595 S.2     1  UNL1       -0.0754
     16 C           2.5510    0.4469   -1.1009 C.ar    1  UNL1       -0.0019
     17 C           3.3343    0.6610   -2.2183 C.ar    1  UNL1       -0.0160
     18 S           2.4281    0.5940   -3.6814 S.2     1  UNL1       -0.1038
     19 C           0.9664    0.2548   -2.8401 C.ar    1  UNL1       -0.0159
     20 C           1.1894    0.2741   -1.4955 C.ar    1  UNL1       -0.0005
     21 C           0.2313    0.0326   -0.4534 C.ar    1  UNL1        0.0163
     22 C          -1.1504   -0.0967   -0.3919 C.ar    1  UNL1        0.0190
     23 C          -2.2448    0.1203   -1.3054 C.ar    1  UNL1        0.0302
     24 C          -2.3465    0.6665   -2.5476 C.ar    1  UNL1        0.1001
     25 O          -3.6686    0.6458   -2.9240 O.2     1  UNL1       -0.4698
     26 C          -4.3884    0.1215   -1.8817 C.ar    1  UNL1        0.1000
     27 C          -3.5454   -0.1895   -0.8455 C.ar    1  UNL1        0.0280
     28 H          -3.0004   -2.2338    2.9005 H       1  UNL1        0.0356
     29 H          -3.2075   -0.5175    3.4062 H       1  UNL1        0.0356
     30 H          -5.6152   -1.6342    3.0111 H       1  UNL1        0.0575
     31 H          -6.1154   -0.9601    0.5369 H       1  UNL1        0.0621
     32 H          -0.2572   -0.7166    2.6072 H       1  UNL1        0.1659
     33 H           2.4163   -0.0941    2.2172 H       1  UNL1        0.0645
     34 H           4.8841    2.6804    0.0266 H       1  UNL1        0.0841
     35 H           7.7470    0.0515    1.5520 H       1  UNL1        0.0907
     36 H           4.4012    0.8249   -2.2846 H       1  UNL1        0.0700
     37 H           0.0819    0.0276   -3.4077 H       1  UNL1        0.0700
     38 H          -1.6873    1.1260   -3.2655 H       1  UNL1        0.1036
     39 H          -5.4566    0.0709   -2.0369 H       1  UNL1        0.1036
@<TRIPOS>BOND
     1     1     2    1
     2     2     3    2
     3     3     4    1
     4     4     5   ar
     5     5     6   ar
     6     6     7   ar
     7     7     8   ar
     8     8     9   ar
     9     9    10   ar
    10    10    11    1
    11    11    12   ar
    12    12    13   ar
    13    13    14   ar
    14    14    15   ar
    15    10    16   ar
    16    16    17   ar
    17    17    18   ar
    18    18    19   ar
    19    19    20   ar
    20    20    21   ar
    21    21    22   ar
    22    22    23   ar
    23    23    24   ar
    24    24    25   ar
    25    25    26   ar
    26    26    27   ar
    27     5     1    1
    28    22     6   ar
    29    27    23   ar
    30    27     4   ar
    31    21     8   ar
    32    15    11   ar
    33    20    16   ar
    34     1    28    1
    35     1    29    1
    36     2    30    1
    37     3    31    1
    38     7    32    1
    39     9    33    1
    40    12    34    1
    41    14    35    1
    42    17    36    1
    43    19    37    1
    44    24    38    1
    45    26    39    1
