@<TRIPOS>MOLECULE
*****
 46 53 0 0 0
SMALL
GASTEIGER

@<TRIPOS>ATOM
      1 C          -4.6105    2.5039   -0.3879 C.3     1  UNL1        0.0000
      2 C          -6.0298    2.1439    0.0074 C.2     1  UNL1        0.0000
      3 C          -6.1460    0.8937    0.4882 C.2     1  UNL1        0.0000
      4 C          -4.8233    0.3211    0.4509 C.ar    1  UNL1        0.0000
      5 C          -3.8794    1.2270   -0.0554 C.ar    1  UNL1        0.0000
      6 C          -2.5220    0.8687   -0.1643 C.ar    1  UNL1        0.0000
      7 N          -1.4321    1.5997   -0.5910 N.ar    1  UNL1        0.0000
      8 C          -0.2735    0.8449   -0.5493 C.ar    1  UNL1        0.0000
      9 C           1.0568    1.2116   -0.8889 C.ar    1  UNL1        0.0000
     10 C           2.1068    0.2732   -0.8149 C.ar    1  UNL1        0.0000
     11 C           3.4906    0.5782   -1.1294 C.ar    1  UNL1        0.0000
     12 S           3.9150    1.0110   -2.7540 S.2     1  UNL1        0.0000
     13 C           5.5891    1.1923   -2.3750 C.ar    1  UNL1        0.0000
     14 C           5.7831    0.9348   -1.0535 C.ar    1  UNL1        0.0000
     15 SI          7.2500    0.9169    0.1260 Si      1  UNL1        0.0000
     16 C           6.0417    0.4282    1.5259 C.2     1  UNL1        0.0000
     17 C           4.7740    0.3227    1.0697 C.2     1  UNL1        0.0000
     18 C           4.6096    0.5895   -0.3302 C.ar    1  UNL1        0.0000
     19 C           1.6724   -0.9937   -0.4235 C.ar    1  UNL1        0.0000
     20 C           2.4342   -2.1371   -0.3369 C.ar    1  UNL1        0.0000
     21 O           1.6529   -3.2043    0.0165 O.2     1  UNL1        0.0000
     22 C           0.3675   -2.7440    0.1546 C.ar    1  UNL1        0.0000
     23 C           0.3664   -1.4047   -0.0781 C.ar    1  UNL1        0.0000
     24 C          -0.6663   -0.4188   -0.1039 C.ar    1  UNL1        0.0000
     25 C          -2.0214   -0.3918    0.1897 C.ar    1  UNL1        0.0000
     26 C          -2.9670   -1.3204    0.7625 C.ar    1  UNL1        0.0000
     27 C          -2.8343   -2.5513    1.3323 C.ar    1  UNL1        0.0000
     28 N          -4.1094   -2.9303    1.7148 N.ar    1  UNL1        0.0000
     29 C          -5.0163   -1.9289    1.4279 C.ar    1  UNL1        0.0000
     30 C          -4.3162   -0.8994    0.8457 C.ar    1  UNL1        0.0000
     31 H          -4.2360    3.3396    0.2099 H       1  UNL1        0.0000
     32 H          -4.5446    2.7289   -1.4560 H       1  UNL1        0.0000
     33 H          -6.8548    2.8353   -0.0919 H       1  UNL1        0.0000
     34 H          -7.0347    0.3969    0.8382 H       1  UNL1        0.0000
     35 H          -1.4746    2.5606   -0.8964 H       1  UNL1        0.0000
     36 H           1.2695    2.2296   -1.2093 H       1  UNL1        0.0000
     37 H           6.3001    1.4739   -3.1398 H       1  UNL1        0.0000
     38 H           8.2252   -0.1699   -0.1387 H       1  UNL1        0.0000
     39 H           7.8411    2.2551    0.3758 H       1  UNL1        0.0000
     40 H           6.3932    0.2743    2.5333 H       1  UNL1        0.0000
     41 H           3.9366    0.0592    1.7065 H       1  UNL1        0.0000
     42 H           3.4772   -2.3677   -0.5041 H       1  UNL1        0.0000
     43 H          -0.3575   -3.5068    0.3756 H       1  UNL1        0.0000
     44 H          -2.0041   -3.1986    1.5519 H       1  UNL1        0.0000
     45 H          -4.3386   -3.8031    2.1720 H       1  UNL1        0.0000
     46 H          -6.0602   -2.0441    1.6847 H       1  UNL1        0.0000
@<TRIPOS>BOND
     1     1     2    1
     2     2     3    2
     3     3     4    1
     4     4     5   ar
     5     5     6   ar
     6     6     7   ar
     7     7     8   ar
     8     8     9   ar
     9     9    10   ar
    10    10    11    1
    11    11    12   ar
    12    12    13   ar
    13    13    14   ar
    14    14    15    1
    15    15    16    1
    16    16    17    2
    17    17    18    1
    18    10    19   ar
    19    19    20   ar
    20    20    21   ar
    21    21    22   ar
    22    22    23   ar
    23    23    24   ar
    24    24    25   ar
    25    25    26   ar
    26    26    27   ar
    27    27    28   ar
    28    28    29   ar
    29    29    30   ar
    30     5     1    1
    31    25     6   ar
    32    30    26   ar
    33    30     4   ar
    34    24     8   ar
    35    18    11   ar
    36    23    19   ar
    37    18    14   ar
    38     1    31    1
    39     1    32    1
    40     2    33    1
    41     3    34    1
    42     7    35    1
    43     9    36    1
    44    13    37    1
    45    15    38    1
    46    15    39    1
    47    16    40    1
    48    17    41    1
    49    20    42    1
    50    22    43    1
    51    27    44    1
    52    28    45    1
    53    29    46    1
