@<TRIPOS>MOLECULE
*****
 34 39 0 0 0
SMALL
GASTEIGER

@<TRIPOS>ATOM
      1 SI          0.3312   -2.4240   -2.6819 Si      1  UNL1        0.0000
      2 C          -0.7167   -1.1062   -1.8652 C.2     1  UNL1        0.0000
      3 C          -0.0056   -0.3907   -0.9675 C.ar    1  UNL1        0.0000
      4 C          -0.5338    0.7334   -0.1539 C.ar    1  UNL1        0.0000
      5 C           0.3059    1.3775    0.6970 C.ar    1  UNL1        0.0000
      6 C           1.6673    0.9508    0.7874 C.ar    1  UNL1        0.0000
      7 O           2.6167    1.5074    1.6079 O.2     1  UNL1        0.0000
      8 C           3.7640    0.8007    1.3793 C.ar    1  UNL1        0.0000
      9 C           5.0642    0.8975    1.9112 C.ar    1  UNL1        0.0000
     10 C           5.8530   -0.0737    1.3283 C.ar    1  UNL1        0.0000
     11 S           5.0248   -1.0623    0.1756 S.2     1  UNL1        0.0000
     12 C           3.5645   -0.1732    0.4542 C.ar    1  UNL1        0.0000
     13 C           2.2166   -0.0930    0.0606 C.ar    1  UNL1        0.0000
     14 C           1.4199   -0.8215   -0.8566 C.ar    1  UNL1        0.0000
     15 C           1.7771   -1.8473   -1.6498 C.2     1  UNL1        0.0000
     16 C          -1.8841    1.1815   -0.1791 C.ar    1  UNL1        0.0000
     17 S          -2.4142    2.6784   -0.8846 S.2     1  UNL1        0.0000
     18 C          -4.0879    2.3926   -0.5019 C.ar    1  UNL1        0.0000
     19 C          -4.1646    1.2017    0.1255 C.ar    1  UNL1        0.0000
     20 C          -5.1046    0.3198    0.7123 C.ar    1  UNL1        0.0000
     21 C          -4.3828   -0.7954    1.1908 C.ar    1  UNL1        0.0000
     22 N          -3.0176   -0.6711    0.9396 N.ar    1  UNL1        0.0000
     23 C          -2.9714    0.5380    0.3043 C.ar    1  UNL1        0.0000
     24 H           0.5308   -2.1740   -4.1289 H       1  UNL1        0.0000
     25 H          -0.1099   -3.7907   -2.3144 H       1  UNL1        0.0000
     26 H          -1.7539   -0.9792   -2.1349 H       1  UNL1        0.0000
     27 H          -0.0145    2.2021    1.3253 H       1  UNL1        0.0000
     28 H           5.3953    1.6115    2.6522 H       1  UNL1        0.0000
     29 H           6.9004   -0.2672    1.5175 H       1  UNL1        0.0000
     30 H           2.7474   -2.3098   -1.7323 H       1  UNL1        0.0000
     31 H          -4.8577    3.1037   -0.7634 H       1  UNL1        0.0000
     32 H          -6.1754    0.4521    0.7923 H       1  UNL1        0.0000
     33 H          -4.7418   -1.6806    1.7001 H       1  UNL1        0.0000
     34 H          -2.2429   -1.2885    1.1528 H       1  UNL1        0.0000
@<TRIPOS>BOND
     1     1     2    1
     2     2     3    2
     3     3     4   ar
     4     4     5   ar
     5     5     6   ar
     6     6     7   ar
     7     7     8   ar
     8     8     9   ar
     9     9    10   ar
    10    10    11   ar
    11    11    12   ar
    12    12    13   ar
    13    13    14   ar
    14    14    15    2
    15     4    16    1
    16    16    17   ar
    17    17    18   ar
    18    18    19   ar
    19    19    20   ar
    20    20    21   ar
    21    21    22   ar
    22    22    23   ar
    23    15     1    1
    24    23    16   ar
    25    14     3   ar
    26    23    19   ar
    27    13     6   ar
    28    12     8   ar
    29     1    24    1
    30     1    25    1
    31     2    26    1
    32     5    27    1
    33     9    28    1
    34    10    29    1
    35    15    30    1
    36    18    31    1
    37    20    32    1
    38    21    33    1
    39    22    34    1
