@<TRIPOS>MOLECULE
*****
 41 47 0 0 0
SMALL
GASTEIGER

@<TRIPOS>ATOM
      1 C           4.6255    2.3050   -0.2249 C.3     1  UNL1       -0.0066
      2 C           6.0345    1.7595   -0.3439 C.2     1  UNL1       -0.0790
      3 C           6.0955    0.4180   -0.2768 C.2     1  UNL1       -0.0573
      4 C           4.7385   -0.0507   -0.1077 C.ar    1  UNL1       -0.0116
      5 C           3.8323    1.0335   -0.0716 C.ar    1  UNL1       -0.0120
      6 C           2.4592    0.7976    0.0865 C.ar    1  UNL1        0.0527
      7 N           1.3622    1.6215    0.1579 N.ar    1  UNL1       -0.3534
      8 C           0.2244    0.8443    0.3198 C.ar    1  UNL1        0.0553
      9 C          -1.1710    1.0703    0.4534 C.ar    1  UNL1       -0.0229
     10 C          -1.8438   -0.1308    0.5905 C.ar    1  UNL1        0.0225
     11 S          -0.8009   -1.5041    0.5653 S.2     1  UNL1       -0.0860
     12 C           0.5751   -0.4831    0.3581 C.ar    1  UNL1        0.0458
     13 C           1.9651   -0.4869    0.2097 C.ar    1  UNL1        0.0225
     14 C           2.8210   -1.6307    0.1822 C.ar    1  UNL1       -0.0001
     15 C           2.4944   -2.9492    0.2888 C.ar    1  UNL1       -0.0159
     16 S           3.9380   -3.8915    0.1883 S.2     1  UNL1       -0.1038
     17 C           4.9416   -2.4937    0.0055 C.ar    1  UNL1       -0.0160
     18 C           4.2057   -1.3318    0.0192 C.ar    1  UNL1       -0.0027
     19 C          -3.2740   -0.3420    0.7496 C.ar    1  UNL1       -0.0021
     20 C          -3.8798   -1.0353    1.8290 C.ar    1  UNL1       -0.0529
     21 C          -5.3012   -1.2122    1.9785 C.ar    1  UNL1       -0.0605
     22 C          -6.2645   -0.7175    1.0694 C.ar    1  UNL1       -0.0526
     23 C          -5.6485   -0.0462    0.0213 C.ar    1  UNL1        0.0000
     24 C          -6.2871    0.5419   -1.0392 C.ar    1  UNL1        0.0094
     25 N          -5.3070    1.0721   -1.8512 N.ar    1  UNL1       -0.3659
     26 C          -4.0580    0.8295   -1.3164 C.ar    1  UNL1        0.0100
     27 C          -4.2409    0.1401   -0.1411 C.ar    1  UNL1        0.0076
     28 H           4.5236    2.9424    0.6577 H       1  UNL1        0.0356
     29 H           4.3347    2.8446   -1.1304 H       1  UNL1        0.0356
     30 H           6.8962    2.4002   -0.4700 H       1  UNL1        0.0575
     31 H           6.9735   -0.2030   -0.3354 H       1  UNL1        0.0621
     32 H           1.3451    2.6315    0.1058 H       1  UNL1        0.1659
     33 H          -1.6549    2.0388    0.4536 H       1  UNL1        0.0650
     34 H           1.5356   -3.4294    0.4157 H       1  UNL1        0.0700
     35 H           6.0096   -2.6213   -0.1003 H       1  UNL1        0.0700
     36 H          -3.2390   -1.4582    2.6037 H       1  UNL1        0.0624
     37 H          -5.6534   -1.7639    2.8509 H       1  UNL1        0.0618
     38 H          -7.3285   -0.8597    1.1904 H       1  UNL1        0.0624
     39 H          -7.3319    0.6297   -1.3041 H       1  UNL1        0.0813
     40 H          -5.4779    1.5585   -2.7217 H       1  UNL1        0.1648
     41 H          -3.1690    1.1624   -1.8343 H       1  UNL1        0.0813
@<TRIPOS>BOND
     1     1     2    1
     2     2     3    2
     3     3     4    1
     4     4     5   ar
     5     5     6   ar
     6     6     7   ar
     7     7     8   ar
     8     8     9   ar
     9     9    10   ar
    10    10    11   ar
    11    11    12   ar
    12    12    13   ar
    13    13    14   ar
    14    14    15   ar
    15    15    16   ar
    16    16    17   ar
    17    17    18   ar
    18    10    19    1
    19    19    20   ar
    20    20    21   ar
    21    21    22   ar
    22    22    23   ar
    23    23    24   ar
    24    24    25   ar
    25    25    26   ar
    26    26    27   ar
    27     5     1    1
    28    13     6   ar
    29    18    14   ar
    30    27    19   ar
    31    18     4   ar
    32    27    23   ar
    33    12     8   ar
    34     1    28    1
    35     1    29    1
    36     2    30    1
    37     3    31    1
    38     7    32    1
    39     9    33    1
    40    15    34    1
    41    17    35    1
    42    20    36    1
    43    21    37    1
    44    22    38    1
    45    24    39    1
    46    25    40    1
    47    26    41    1
