@<TRIPOS>MOLECULE
*****
 36 40 0 0 0
SMALL
GASTEIGER

@<TRIPOS>ATOM
      1 C          -2.8194   -2.2076    0.9915 C.3     1  UNL1        0.0000
      2 C          -4.2827   -1.9385    0.7718 C.2     1  UNL1        0.0000
      3 C          -4.4420   -0.7595    0.1515 C.2     1  UNL1        0.0000
      4 C          -3.1495   -0.1602   -0.0886 C.ar    1  UNL1        0.0000
      5 C          -2.1878   -0.9836    0.3912 C.ar    1  UNL1        0.0000
      6 C          -0.7810   -0.6589    0.2997 C.ar    1  UNL1        0.0000
      7 SI          0.6140   -1.7156    0.9240 Si      1  UNL1        0.0000
      8 C           1.8524   -0.3890    0.3037 C.2     1  UNL1        0.0000
      9 C           1.1445    0.6197   -0.2582 C.2     1  UNL1        0.0000
     10 C          -0.3171    0.4871   -0.2693 C.ar    1  UNL1        0.0000
     11 C          -1.3066    1.4246   -0.8097 C.ar    1  UNL1        0.0000
     12 C          -1.0461    2.6046   -1.4075 C.2     1  UNL1        0.0000
     13 SI         -2.6280    3.4535   -1.9344 Si      1  UNL1        0.0000
     14 C          -3.5896    2.0113   -1.2390 C.2     1  UNL1        0.0000
     15 C          -2.7586    1.0893   -0.7153 C.ar    1  UNL1        0.0000
     16 C           3.2847   -0.5310    0.4552 C.2     1  UNL1        0.0000
     17 C           3.9931   -1.5378    1.0192 C.2     1  UNL1        0.0000
     18 C           5.4423   -1.3958    1.0230 C.2     1  UNL1        0.0000
     19 C           5.9168   -0.2716    0.4613 C.2     1  UNL1        0.0000
     20 SI          4.5255    0.8039   -0.1754 Si      1  UNL1        0.0000
     21 H          -2.6011   -2.2954    2.0603 H       1  UNL1        0.0000
     22 H          -2.5140   -3.1201    0.4702 H       1  UNL1        0.0000
     23 H          -5.0786   -2.6026    1.0726 H       1  UNL1        0.0000
     24 H          -5.3809   -0.3107   -0.1327 H       1  UNL1        0.0000
     25 H           0.6275   -1.8490    2.4043 H       1  UNL1        0.0000
     26 H           0.7486   -2.9992    0.1869 H       1  UNL1        0.0000
     27 H           1.5840    1.5070   -0.6943 H       1  UNL1        0.0000
     28 H          -0.0849    3.0557   -1.5889 H       1  UNL1        0.0000
     29 H          -2.8695    4.7110   -1.1866 H       1  UNL1        0.0000
     30 H          -2.7478    3.5583   -3.4088 H       1  UNL1        0.0000
     31 H          -4.6659    1.9763   -1.2798 H       1  UNL1        0.0000
     32 H           3.5652   -2.4288    1.4617 H       1  UNL1        0.0000
     33 H           6.0724   -2.1626    1.4575 H       1  UNL1        0.0000
     34 H           6.9511    0.0184    0.3654 H       1  UNL1        0.0000
     35 H           4.5245    0.9163   -1.6558 H       1  UNL1        0.0000
     36 H           4.4046    2.0805    0.5729 H       1  UNL1        0.0000
@<TRIPOS>BOND
     1     1     2    1
     2     2     3    2
     3     3     4    1
     4     4     5   ar
     5     5     6   ar
     6     6     7    1
     7     7     8    1
     8     8     9    2
     9     9    10    1
    10    10    11   ar
    11    11    12    2
    12    12    13    1
    13    13    14    1
    14    14    15    2
    15     8    16    1
    16    16    17    2
    17    17    18    1
    18    18    19    2
    19    19    20    1
    20     5     1    1
    21    10     6   ar
    22    15    11   ar
    23    20    16    1
    24    15     4   ar
    25     1    21    1
    26     1    22    1
    27     2    23    1
    28     3    24    1
    29     7    25    1
    30     7    26    1
    31     9    27    1
    32    12    28    1
    33    13    29    1
    34    13    30    1
    35    14    31    1
    36    17    32    1
    37    18    33    1
    38    19    34    1
    39    20    35    1
    40    20    36    1
