@<TRIPOS>MOLECULE
*****
 48 55 0 0 0
SMALL
GASTEIGER

@<TRIPOS>ATOM
      1 C          -5.1109    0.7412   -0.3708 C.3     1  UNL1        0.0000
      2 C          -6.1674   -0.3140   -0.6324 C.2     1  UNL1        0.0000
      3 C          -5.6564   -1.5456   -0.7726 C.2     1  UNL1        0.0000
      4 C          -4.2336   -1.3991   -0.6154 C.ar    1  UNL1        0.0000
      5 C          -3.8337   -0.0621   -0.3728 C.ar    1  UNL1        0.0000
      6 C          -2.4715    0.3467   -0.1812 C.ar    1  UNL1        0.0000
      7 C          -1.3924   -0.6390   -0.2300 C.ar    1  UNL1        0.0000
      8 C          -1.8256   -1.9645   -0.4740 C.ar    1  UNL1        0.0000
      9 C          -1.1172   -3.1390   -0.5868 C.ar    1  UNL1        0.0000
     10 N          -2.0191   -4.1606   -0.8287 N.ar    1  UNL1        0.0000
     11 C          -3.3003   -3.6659   -0.8742 C.ar    1  UNL1        0.0000
     12 C          -3.2043   -2.3167   -0.6585 C.ar    1  UNL1        0.0000
     13 C          -0.0122   -0.2047   -0.0328 C.ar    1  UNL1        0.0000
     14 N           1.1385   -0.9456   -0.0374 N.ar    1  UNL1        0.0000
     15 C           2.2495   -0.1544    0.1888 C.ar    1  UNL1        0.0000
     16 C           1.7818    1.1381    0.3424 C.ar    1  UNL1        0.0000
     17 C           0.3756    1.0995    0.2035 C.ar    1  UNL1        0.0000
     18 C          -0.6027    2.1322    0.2690 C.ar    1  UNL1        0.0000
     19 C          -0.3494    3.4368    0.4928 C.2     1  UNL1        0.0000
     20 SI         -1.9064    4.4353    0.4984 Si      1  UNL1        0.0000
     21 C          -2.8550    2.8561    0.1668 C.2     1  UNL1        0.0000
     22 C          -2.0473    1.7753    0.0777 C.ar    1  UNL1        0.0000
     23 C           3.5821   -0.6994    0.2313 C.ar    1  UNL1        0.0000
     24 S           3.8564   -2.4047   -0.0063 S.2     1  UNL1        0.0000
     25 C           5.5626   -2.2694    0.1768 C.ar    1  UNL1        0.0000
     26 C           5.9187   -0.9710    0.4115 C.ar    1  UNL1        0.0000
     27 C           7.2128   -0.3971    0.6233 C.2     1  UNL1        0.0000
     28 C           7.2149    0.9370    0.8298 C.2     1  UNL1        0.0000
     29 SI          5.4423    1.6435    0.7707 Si      1  UNL1        0.0000
     30 C           4.7923   -0.0974    0.4395 C.ar    1  UNL1        0.0000
     31 H          -5.2905    1.2048    0.6034 H       1  UNL1        0.0000
     32 H          -5.1216    1.4778   -1.1792 H       1  UNL1        0.0000
     33 H          -7.2208   -0.0801   -0.6964 H       1  UNL1        0.0000
     34 H          -6.1804   -2.4663   -0.9633 H       1  UNL1        0.0000
     35 H          -0.0724   -3.3927   -0.5267 H       1  UNL1        0.0000
     36 H          -1.7692   -5.1331   -0.9540 H       1  UNL1        0.0000
     37 H          -4.1434   -4.3185   -1.0540 H       1  UNL1        0.0000
     38 H           1.2020   -1.9386   -0.1834 H       1  UNL1        0.0000
     39 H           2.3727    2.0204    0.5332 H       1  UNL1        0.0000
     40 H           0.6141    3.8921    0.6537 H       1  UNL1        0.0000
     41 H          -1.9883    5.3868   -0.6359 H       1  UNL1        0.0000
     42 H          -2.2215    5.0094    1.8286 H       1  UNL1        0.0000
     43 H          -3.9210    2.9285    0.0770 H       1  UNL1        0.0000
     44 H           6.1923   -3.1446    0.1014 H       1  UNL1        0.0000
     45 H           8.1156   -0.9970    0.6163 H       1  UNL1        0.0000
     46 H           8.0638    1.5764    1.0094 H       1  UNL1        0.0000
     47 H           5.0563    2.2013    2.0911 H       1  UNL1        0.0000
     48 H           5.2901    2.5820   -0.3693 H       1  UNL1        0.0000
@<TRIPOS>BOND
     1     1     2    1
     2     2     3    2
     3     3     4    1
     4     4     5   ar
     5     5     6   ar
     6     6     7   ar
     7     7     8   ar
     8     8     9   ar
     9     9    10   ar
    10    10    11   ar
    11    11    12   ar
    12     7    13   ar
    13    13    14   ar
    14    14    15   ar
    15    15    16   ar
    16    16    17   ar
    17    17    18   ar
    18    18    19    2
    19    19    20    1
    20    20    21    1
    21    21    22    2
    22    15    23    1
    23    23    24   ar
    24    24    25   ar
    25    25    26   ar
    26    26    27    1
    27    27    28    2
    28    28    29    1
    29    29    30    1
    30     5     1    1
    31    22     6   ar
    32    30    23   ar
    33    12     4   ar
    34    17    13   ar
    35    22    18   ar
    36    30    26   ar
    37    12     8   ar
    38     1    31    1
    39     1    32    1
    40     2    33    1
    41     3    34    1
    42     9    35    1
    43    10    36    1
    44    11    37    1
    45    14    38    1
    46    16    39    1
    47    19    40    1
    48    20    41    1
    49    20    42    1
    50    21    43    1
    51    25    44    1
    52    27    45    1
    53    28    46    1
    54    29    47    1
    55    29    48    1
