@<TRIPOS>MOLECULE
*****
 48 54 0 0 0
SMALL
GASTEIGER

@<TRIPOS>ATOM
      1 C          -3.4355   -0.3767   -3.2663 C.3     1  UNL1        0.0000
      2 C          -4.5362   -1.3897   -3.4032 C.2     1  UNL1        0.0000
      3 C          -4.6773   -2.0522   -2.2494 C.2     1  UNL1        0.0000
      4 C          -3.6969   -1.5766   -1.3017 C.ar    1  UNL1        0.0000
      5 C          -2.9447   -0.5989   -1.8581 C.ar    1  UNL1        0.0000
      6 C          -1.7572    0.0238   -1.2130 C.ar    1  UNL1        0.0000
      7 C          -1.2982   -0.5206   -0.0291 C.ar    1  UNL1        0.0000
      8 C           0.1090   -0.2149    0.4493 C.ar    1  UNL1        0.0000
      9 C           0.7821   -1.0855    1.3238 C.ar    1  UNL1        0.0000
     10 C           2.0720   -0.8141    1.7973 C.ar    1  UNL1        0.0000
     11 C           2.7773    0.3192    1.3824 C.ar    1  UNL1        0.0000
     12 C           2.1403    1.1525    0.4491 C.ar    1  UNL1        0.0000
     13 C           0.8421    0.8837   -0.0397 C.ar    1  UNL1        0.0000
     14 C           0.2451    1.6590   -1.1385 C.ar    1  UNL1        0.0000
     15 C           0.7658    2.7868   -1.6685 C.2     1  UNL1        0.0000
     16 SI         -0.2659    3.4241   -3.0724 Si      1  UNL1        0.0000
     17 C          -1.4209    1.9911   -2.7712 C.2     1  UNL1        0.0000
     18 C          -1.0125    1.1830   -1.7671 C.ar    1  UNL1        0.0000
     19 C           4.1374    0.5904    1.8924 C.ar    1  UNL1        0.0000
     20 C           5.1311    1.1995    1.1243 C.ar    1  UNL1        0.0000
     21 C           6.3896    1.4199    1.6821 C.ar    1  UNL1        0.0000
     22 C           6.6321    1.0274    2.9907 C.ar    1  UNL1        0.0000
     23 C           5.6025    0.4227    3.6876 C.ar    1  UNL1        0.0000
     24 N           4.3752    0.1947    3.1703 N.ar    1  UNL1        0.0000
     25 C          -2.2334   -1.4086    0.7227 C.ar    1  UNL1        0.0000
     26 C          -2.1938   -1.7016    2.0421 C.2     1  UNL1        0.0000
     27 SI         -3.5656   -2.8645    2.5493 Si      1  UNL1        0.0000
     28 C          -4.2000   -2.7795    0.8028 C.2     1  UNL1        0.0000
     29 C          -3.4175   -1.9848    0.0466 C.ar    1  UNL1        0.0000
     30 H          -2.6506   -0.5566   -4.0070 H       1  UNL1        0.0000
     31 H          -3.8735    0.6159   -3.3974 H       1  UNL1        0.0000
     32 H          -5.1255   -1.5406   -4.2945 H       1  UNL1        0.0000
     33 H          -5.3899   -2.8365   -2.0480 H       1  UNL1        0.0000
     34 H           0.3305   -2.0202    1.6427 H       1  UNL1        0.0000
     35 H           2.5337   -1.5144    2.4925 H       1  UNL1        0.0000
     36 H           2.6715    2.0274    0.0873 H       1  UNL1        0.0000
     37 H           1.6600    3.3125   -1.3800 H       1  UNL1        0.0000
     38 H          -0.8938    4.7339   -2.7763 H       1  UNL1        0.0000
     39 H           0.4271    3.3285   -4.3797 H       1  UNL1        0.0000
     40 H          -2.3143    1.9483   -3.3614 H       1  UNL1        0.0000
     41 H           4.9479    1.4877    0.0947 H       1  UNL1        0.0000
     42 H           7.1735    1.8903    1.0954 H       1  UNL1        0.0000
     43 H           7.5991    1.1841    3.4548 H       1  UNL1        0.0000
     44 H           5.7386    0.0931    4.7137 H       1  UNL1        0.0000
     45 H          -1.5007   -1.3392    2.7833 H       1  UNL1        0.0000
     46 H          -4.4991   -2.2532    3.5257 H       1  UNL1        0.0000
     47 H          -3.0597   -4.2118    2.9068 H       1  UNL1        0.0000
     48 H          -5.1208   -3.2586    0.5128 H       1  UNL1        0.0000
@<TRIPOS>BOND
     1     1     2    1
     2     2     3    2
     3     3     4    1
     4     4     5   ar
     5     5     6   ar
     6     6     7   ar
     7     7     8   ar
     8     8     9   ar
     9     9    10   ar
    10    10    11   ar
    11    11    12   ar
    12    12    13   ar
    13    13    14   ar
    14    14    15    2
    15    15    16    1
    16    16    17    1
    17    17    18    2
    18    11    19    1
    19    19    20   ar
    20    20    21   ar
    21    21    22   ar
    22    22    23   ar
    23    23    24   ar
    24     7    25   ar
    25    25    26    2
    26    26    27    1
    27    27    28    1
    28    28    29    2
    29     5     1    1
    30    18     6   ar
    31    24    19   ar
    32    29    25   ar
    33    29     4   ar
    34    13     8   ar
    35    18    14   ar
    36     1    30    1
    37     1    31    1
    38     2    32    1
    39     3    33    1
    40     9    34    1
    41    10    35    1
    42    12    36    1
    43    15    37    1
    44    16    38    1
    45    16    39    1
    46    17    40    1
    47    20    41    1
    48    21    42    1
    49    22    43    1
    50    23    44    1
    51    26    45    1
    52    27    46    1
    53    27    47    1
    54    28    48    1
