@<TRIPOS>MOLECULE
*****
 45 52 0 0 0
SMALL
GASTEIGER

@<TRIPOS>ATOM
      1 C          -4.8531    0.3434   -0.5389 C.3     1  UNL1       -0.0080
      2 C          -5.8205   -0.7409   -0.1003 C.2     1  UNL1       -0.0791
      3 C          -5.2084   -1.8118    0.4300 C.2     1  UNL1       -0.0573
      4 C          -3.7996   -1.5220    0.3840 C.ar    1  UNL1       -0.0121
      5 C          -3.5228   -0.2613   -0.1785 C.ar    1  UNL1       -0.0275
      6 C          -2.1891    0.2670   -0.3387 C.ar    1  UNL1       -0.0021
      7 C          -1.8146    1.5224   -0.8928 C.ar    1  UNL1        0.0081
      8 C          -2.6404    2.5071   -1.3969 C.ar    1  UNL1        0.0100
      9 N          -1.8529    3.5629   -1.8335 N.ar    1  UNL1       -0.3659
     10 C          -0.5218    3.2842   -1.6227 C.ar    1  UNL1        0.0101
     11 C          -0.5199    2.0472   -1.0537 C.ar    1  UNL1        0.0092
     12 C           0.5823    1.2697   -0.6277 C.ar    1  UNL1        0.0100
     13 C           1.9422    1.5581   -0.6757 C.ar    1  UNL1       -0.0279
     14 C           2.5872    0.4549   -0.1283 C.ar    1  UNL1        0.0511
     15 N           1.5799   -0.4429    0.2219 N.ar    1  UNL1       -0.3535
     16 C           0.3196    0.0324   -0.0751 C.ar    1  UNL1        0.0560
     17 C          -0.9967   -0.4871    0.0820 C.ar    1  UNL1        0.0161
     18 C          -1.3347   -1.7464    0.6399 C.ar    1  UNL1        0.0097
     19 C          -0.5226   -2.7366    1.1453 C.ar    1  UNL1        0.0101
     20 N          -1.3310   -3.7753    1.5727 N.ar    1  UNL1       -0.3659
     21 C          -2.6539   -3.4750    1.3527 C.ar    1  UNL1        0.0100
     22 C          -2.6832   -2.2312    0.7792 C.ar    1  UNL1        0.0075
     23 C           4.0133    0.1798    0.0871 C.ar    1  UNL1        0.0445
     24 C           4.5198   -0.9986    0.6610 C.ar    1  UNL1        0.0389
     25 N           5.8290   -1.3445    0.9016 N.ar    1  UNL1       -0.2603
     26 C           6.8386   -0.4926    0.5724 C.ar    1  UNL1        0.0557
     27 C           6.5007    0.7405   -0.0161 C.ar    1  UNL1        0.1185
     28 N           7.3643    1.6941   -0.4012 N.ar    1  UNL1       -0.1892
     29 S           6.4494    2.9267   -1.0255 S.2     1  UNL1        0.1165
     30 N           4.9274    2.3070   -0.8350 N.ar    1  UNL1       -0.1900
     31 C           5.0491    1.0913   -0.2679 C.ar    1  UNL1        0.1119
     32 H          -4.9386    0.5094   -1.6165 H       1  UNL1        0.0356
     33 H          -5.0401    1.2630    0.0226 H       1  UNL1        0.0356
     34 H          -6.8913   -0.6440   -0.2112 H       1  UNL1        0.0575
     35 H          -5.6560   -2.7114    0.8158 H       1  UNL1        0.0621
     36 H          -3.7116    2.5853   -1.4994 H       1  UNL1        0.0813
     37 H          -2.2087    4.4147   -2.2474 H       1  UNL1        0.1648
     38 H           0.2582    3.9811   -1.8948 H       1  UNL1        0.0813
     39 H           2.4057    2.4563   -1.0599 H       1  UNL1        0.0645
     40 H           1.7406   -1.3400    0.6445 H       1  UNL1        0.1659
     41 H           0.5428   -2.8411    1.2593 H       1  UNL1        0.0813
     42 H          -0.9960   -4.6347    1.9884 H       1  UNL1        0.1648
     43 H          -3.4356   -4.1710    1.6242 H       1  UNL1        0.0813
     44 H           3.8390   -1.7857    0.9809 H       1  UNL1        0.0837
     45 H           7.8538   -0.8041    0.7789 H       1  UNL1        0.0852
@<TRIPOS>BOND
     1     1     2    1
     2     2     3    2
     3     3     4    1
     4     4     5   ar
     5     5     6   ar
     6     6     7   ar
     7     7     8   ar
     8     8     9   ar
     9     9    10   ar
    10    10    11   ar
    11    11    12   ar
    12    12    13   ar
    13    13    14   ar
    14    14    15   ar
    15    15    16   ar
    16    16    17   ar
    17    17    18   ar
    18    18    19   ar
    19    19    20   ar
    20    20    21   ar
    21    21    22   ar
    22    14    23    1
    23    23    24   ar
    24    24    25   ar
    25    25    26   ar
    26    26    27   ar
    27    27    28   ar
    28    28    29   ar
    29    29    30   ar
    30    30    31   ar
    31     5     1    1
    32    17     6   ar
    33    22    18   ar
    34    31    23   ar
    35    22     4   ar
    36    31    27   ar
    37    11     7   ar
    38    16    12   ar
    39     1    32    1
    40     1    33    1
    41     2    34    1
    42     3    35    1
    43     8    36    1
    44     9    37    1
    45    10    38    1
    46    13    39    1
    47    15    40    1
    48    19    41    1
    49    20    42    1
    50    21    43    1
    51    24    44    1
    52    26    45    1
