@<TRIPOS>MOLECULE
*****
 41 47 0 0 0
SMALL
GASTEIGER

@<TRIPOS>ATOM
      1 C          -3.9796    1.3551    0.0865 C.3     1  UNL1        0.0000
      2 C          -5.1208    0.3982   -0.1071 C.2     1  UNL1        0.0000
      3 C          -4.6433   -0.8420   -0.2775 C.2     1  UNL1        0.0000
      4 C          -3.1972   -0.8203   -0.2146 C.ar    1  UNL1        0.0000
      5 C          -2.7873    0.4519   -0.0028 C.ar    1  UNL1        0.0000
      6 C          -1.3669    0.8069    0.1101 C.ar    1  UNL1        0.0000
      7 C          -0.8503    2.0984    0.3293 C.ar    1  UNL1        0.0000
      8 C          -1.5199    3.2947    0.4852 C.ar    1  UNL1        0.0000
      9 N          -0.5876    4.3061    0.6785 N.ar    1  UNL1        0.0000
     10 C           0.6891    3.7910    0.6520 C.ar    1  UNL1        0.0000
     11 C           0.5091    2.4592    0.4404 C.ar    1  UNL1        0.0000
     12 C           1.4775    1.4385    0.3237 C.ar    1  UNL1        0.0000
     13 C           2.8648    1.4733    0.3860 C.ar    1  UNL1        0.0000
     14 C           3.2584    0.1519    0.1996 C.ar    1  UNL1        0.0000
     15 O           2.1348   -0.6367    0.0326 O.2     1  UNL1        0.0000
     16 C           1.0187    0.1589    0.1088 C.ar    1  UNL1        0.0000
     17 C          -0.3448   -0.2076   -0.0034 C.ar    1  UNL1        0.0000
     18 C          -0.7772   -1.6088   -0.2358 C.ar    1  UNL1        0.0000
     19 C           0.0032   -2.7019   -0.3711 C.2     1  UNL1        0.0000
     20 SI         -1.0098   -4.2455   -0.6492 Si      1  UNL1        0.0000
     21 C          -2.5432   -3.1905   -0.5507 C.2     1  UNL1        0.0000
     22 C          -2.2337   -1.8953   -0.3396 C.ar    1  UNL1        0.0000
     23 C           4.5774   -0.4136    0.1669 C.ar    1  UNL1        0.0000
     24 C           4.9099   -1.7422   -0.0233 C.ar    1  UNL1        0.0000
     25 N           6.2611   -2.0405   -0.0136 N.ar    1  UNL1        0.0000
     26 C           6.9393   -0.9327    0.1842 C.ar    1  UNL1        0.0000
     27 S           6.0164    0.5002    0.3662 S.2     1  UNL1        0.0000
     28 H          -3.9837    2.1063   -0.7091 H       1  UNL1        0.0000
     29 H          -4.0569    1.8341    1.0673 H       1  UNL1        0.0000
     30 H          -6.1632    0.6775   -0.1073 H       1  UNL1        0.0000
     31 H          -5.2315   -1.7319   -0.4381 H       1  UNL1        0.0000
     32 H          -2.5657    3.5602    0.4829 H       1  UNL1        0.0000
     33 H          -0.8179    5.2816    0.8186 H       1  UNL1        0.0000
     34 H           1.5595    4.4183    0.7839 H       1  UNL1        0.0000
     35 H           3.5106    2.3246    0.5430 H       1  UNL1        0.0000
     36 H           1.0774   -2.7638   -0.3364 H       1  UNL1        0.0000
     37 H          -0.9098   -5.2048    0.4773 H       1  UNL1        0.0000
     38 H          -0.8079   -4.8255   -1.9991 H       1  UNL1        0.0000
     39 H          -3.5254   -3.6211   -0.6571 H       1  UNL1        0.0000
     40 H           4.1961   -2.5434   -0.1755 H       1  UNL1        0.0000
     41 H           8.0205   -0.9189    0.2307 H       1  UNL1        0.0000
@<TRIPOS>BOND
     1     1     2    1
     2     2     3    2
     3     3     4    1
     4     4     5   ar
     5     5     6   ar
     6     6     7   ar
     7     7     8   ar
     8     8     9   ar
     9     9    10   ar
    10    10    11   ar
    11    11    12   ar
    12    12    13   ar
    13    13    14   ar
    14    14    15   ar
    15    15    16   ar
    16    16    17   ar
    17    17    18   ar
    18    18    19    2
    19    19    20    1
    20    20    21    1
    21    21    22    2
    22    14    23    1
    23    23    24   ar
    24    24    25   ar
    25    25    26   ar
    26    26    27   ar
    27     5     1    1
    28    17     6   ar
    29    22    18   ar
    30    27    23   ar
    31    22     4   ar
    32    11     7   ar
    33    16    12   ar
    34     1    28    1
    35     1    29    1
    36     2    30    1
    37     3    31    1
    38     8    32    1
    39     9    33    1
    40    10    34    1
    41    13    35    1
    42    19    36    1
    43    20    37    1
    44    20    38    1
    45    21    39    1
    46    24    40    1
    47    26    41    1
