@<TRIPOS>MOLECULE
*****
 42 48 0 0 0
SMALL
GASTEIGER

@<TRIPOS>ATOM
      1 C          -4.6798    0.1695   -0.2104 C.3     1  UNL1       -0.0080
      2 C          -5.5386   -1.0755   -0.3092 C.2     1  UNL1       -0.0791
      3 C          -4.8231   -2.2113   -0.3224 C.2     1  UNL1       -0.0573
      4 C          -3.4395   -1.8142   -0.2339 C.ar    1  UNL1       -0.0130
      5 C          -3.2927   -0.4128   -0.1648 C.ar    1  UNL1       -0.0274
      6 C          -2.0201    0.2508   -0.0703 C.ar    1  UNL1       -0.0006
      7 C          -1.7599    1.6513    0.0046 C.ar    1  UNL1        0.0082
      8 C          -2.6747    2.6841    0.0030 C.ar    1  UNL1        0.0100
      9 N          -1.9855    3.8858    0.0912 N.ar    1  UNL1       -0.3659
     10 C          -0.6283    3.6561    0.1508 C.ar    1  UNL1        0.0101
     11 C          -0.5124    2.3011    0.0972 C.ar    1  UNL1        0.0108
     12 C           0.6538    1.5075    0.1222 C.ar    1  UNL1        0.0306
     13 C           2.0007    1.8410    0.2061 C.ar    1  UNL1       -0.0059
     14 C           2.6547    0.6161    0.1859 C.ar    1  UNL1        0.1544
     15 O           1.7359   -0.4069    0.0937 O.2     1  UNL1       -0.4526
     16 C           0.4813    0.1441    0.0535 C.ar    1  UNL1        0.1447
     17 C          -0.7687   -0.5105   -0.0395 C.ar    1  UNL1        0.0341
     18 C          -0.9542   -1.9159   -0.1108 C.ar    1  UNL1        0.0010
     19 C           0.0468   -2.8613   -0.1009 C.ar    1  UNL1       -0.0159
     20 S          -0.5712   -4.4639   -0.2031 S.2     1  UNL1       -0.1038
     21 C          -2.1963   -3.9149   -0.2624 C.ar    1  UNL1       -0.0160
     22 C          -2.2599   -2.5450   -0.2055 C.ar    1  UNL1       -0.0028
     23 C           4.0591    0.2142    0.2404 C.ar    1  UNL1        0.1060
     24 C           5.0859    1.1502    0.3341 C.ar    1  UNL1       -0.0327
     25 C           6.4045    0.7010    0.3822 C.ar    1  UNL1       -0.0582
     26 C           6.6612   -0.6633    0.3355 C.ar    1  UNL1       -0.0436
     27 C           5.5838   -1.5267    0.2424 C.ar    1  UNL1        0.0284
     28 N           4.2976   -1.1198    0.1941 N.ar    1  UNL1       -0.2519
     29 H          -4.8216    0.7961   -1.0955 H       1  UNL1        0.0356
     30 H          -4.9142    0.7169    0.7069 H       1  UNL1        0.0356
     31 H          -6.6176   -1.0352   -0.3629 H       1  UNL1        0.0575
     32 H          -5.1907   -3.2213   -0.3857 H       1  UNL1        0.0621
     33 H          -3.7525    2.7095   -0.0512 H       1  UNL1        0.0813
     34 H          -2.4212    4.7990    0.1089 H       1  UNL1        0.1648
     35 H           0.0831    4.4665    0.2229 H       1  UNL1        0.0813
     36 H           2.4531    2.8184    0.2722 H       1  UNL1        0.0662
     37 H           1.1180   -2.7255   -0.0399 H       1  UNL1        0.0700
     38 H          -3.0019   -4.6316   -0.3352 H       1  UNL1        0.0700
     39 H           4.8786    2.2135    0.3701 H       1  UNL1        0.0640
     40 H           7.2233    1.4111    0.4554 H       1  UNL1        0.0619
     41 H           7.6751   -1.0458    0.3709 H       1  UNL1        0.0633
     42 H           5.7285   -2.6026    0.2026 H       1  UNL1        0.0830
@<TRIPOS>BOND
     1     1     2    1
     2     2     3    2
     3     3     4    1
     4     4     5   ar
     5     5     6   ar
     6     6     7   ar
     7     7     8   ar
     8     8     9   ar
     9     9    10   ar
    10    10    11   ar
    11    11    12   ar
    12    12    13   ar
    13    13    14   ar
    14    14    15   ar
    15    15    16   ar
    16    16    17   ar
    17    17    18   ar
    18    18    19   ar
    19    19    20   ar
    20    20    21   ar
    21    21    22   ar
    22    14    23    1
    23    23    24   ar
    24    24    25   ar
    25    25    26   ar
    26    26    27   ar
    27    27    28   ar
    28     5     1    1
    29    17     6   ar
    30    22    18   ar
    31    28    23   ar
    32    22     4   ar
    33    11     7   ar
    34    16    12   ar
    35     1    29    1
    36     1    30    1
    37     2    31    1
    38     3    32    1
    39     8    33    1
    40     9    34    1
    41    10    35    1
    42    13    36    1
    43    19    37    1
    44    21    38    1
    45    24    39    1
    46    25    40    1
    47    26    41    1
    48    27    42    1
