@<TRIPOS>MOLECULE
*****
 48 55 0 0 0
SMALL
GASTEIGER

@<TRIPOS>ATOM
      1 C          -4.9230    0.6216   -0.0195 C.3     1  UNL1       -0.0080
      2 C          -5.9908   -0.4335    0.1697 C.2     1  UNL1       -0.0791
      3 C          -5.4838   -1.6623    0.3232 C.2     1  UNL1       -0.0573
      4 C          -4.0578   -1.4980    0.2661 C.ar    1  UNL1       -0.0121
      5 C          -3.6249   -0.1634    0.0716 C.ar    1  UNL1       -0.0276
      6 C          -2.2245    0.2981   -0.0191 C.ar    1  UNL1       -0.0049
      7 C          -1.7969    1.6642   -0.2912 C.ar    1  UNL1       -0.0093
      8 C          -2.7002    2.7368   -0.5407 C.ar    1  UNL1       -0.0534
      9 C          -2.3163    4.0459   -0.8403 C.ar    1  UNL1       -0.0611
     10 C          -0.9819    4.3542   -0.9076 C.ar    1  UNL1       -0.0611
     11 C          -0.0523    3.3504   -0.6616 C.ar    1  UNL1       -0.0534
     12 C          -0.4061    2.0060   -0.3441 C.ar    1  UNL1       -0.0095
     13 C           0.6028    1.0305   -0.0529 C.ar    1  UNL1       -0.0061
     14 C           1.9977    1.3288   -0.0265 C.ar    1  UNL1       -0.0268
     15 C           2.9495    0.3871    0.3487 C.ar    1  UNL1        0.0787
     16 N           2.5899   -0.8464    0.7216 N.ar    1  UNL1       -0.2538
     17 C           1.2670   -1.1319    0.6809 C.ar    1  UNL1        0.0366
     18 C           0.2234   -0.2887    0.2503 C.ar    1  UNL1        0.0092
     19 C          -1.1629   -0.6814    0.1665 C.ar    1  UNL1        0.0013
     20 C          -1.6577   -2.0410    0.2504 C.ar    1  UNL1        0.0083
     21 C          -0.9752   -3.2373    0.1655 C.ar    1  UNL1        0.0100
     22 N          -1.8817   -4.2721    0.2939 N.ar    1  UNL1       -0.3659
     23 C          -3.1546   -3.7693    0.3762 C.ar    1  UNL1        0.0100
     24 C          -3.0352   -2.4058    0.3096 C.ar    1  UNL1        0.0074
     25 C           4.3937    0.6452    0.3923 C.ar    1  UNL1        0.0458
     26 S           5.0347    2.2453    0.5952 S.2     1  UNL1       -0.0934
     27 C           6.6726    1.7223    0.5609 C.ar    1  UNL1       -0.0094
     28 C           6.7333    0.3689    0.4072 C.ar    1  UNL1        0.0270
     29 S           8.1481   -0.7411    0.3036 S.2     1  UNL1       -0.0961
     30 C           6.9446   -2.0111    0.1391 C.ar    1  UNL1       -0.0231
     31 C           5.6065   -1.6019    0.1620 C.ar    1  UNL1       -0.0458
     32 C           5.4611   -0.1957    0.3221 C.ar    1  UNL1        0.0054
     33 H          -5.0524    1.0640   -1.0116 H       1  UNL1        0.0356
     34 H          -4.9973    1.3626    0.7817 H       1  UNL1        0.0356
     35 H          -7.0471   -0.2043    0.1672 H       1  UNL1        0.0575
     36 H          -6.0125   -2.5889    0.4663 H       1  UNL1        0.0621
     37 H          -3.7686    2.5979   -0.5197 H       1  UNL1        0.0624
     38 H          -3.0688    4.8083   -1.0226 H       1  UNL1        0.0618
     39 H          -0.6557    5.3631   -1.1425 H       1  UNL1        0.0618
     40 H           0.9845    3.6663   -0.7243 H       1  UNL1        0.0624
     41 H           2.3557    2.3127   -0.2990 H       1  UNL1        0.0645
     42 H           1.0655   -2.1127    1.0933 H       1  UNL1        0.0836
     43 H           0.0585   -3.4943   -0.0090 H       1  UNL1        0.0813
     44 H          -1.6443   -5.2558    0.2731 H       1  UNL1        0.1648
     45 H          -4.0116   -4.4262    0.4363 H       1  UNL1        0.0813
     46 H           7.5047    2.4062    0.6546 H       1  UNL1        0.0705
     47 H           7.3077   -3.0240    0.0313 H       1  UNL1        0.0694
     48 H           4.7825   -2.2995    0.0702 H       1  UNL1        0.0629
@<TRIPOS>BOND
     1     1     2    1
     2     2     3    2
     3     3     4    1
     4     4     5   ar
     5     5     6   ar
     6     6     7   ar
     7     7     8   ar
     8     8     9   ar
     9     9    10   ar
    10    10    11   ar
    11    11    12   ar
    12    12    13   ar
    13    13    14   ar
    14    14    15   ar
    15    15    16   ar
    16    16    17   ar
    17    17    18   ar
    18    18    19   ar
    19    19    20   ar
    20    20    21   ar
    21    21    22   ar
    22    22    23   ar
    23    23    24   ar
    24    15    25    1
    25    25    26   ar
    26    26    27   ar
    27    27    28   ar
    28    28    29   ar
    29    29    30   ar
    30    30    31   ar
    31    31    32   ar
    32     5     1    1
    33    19     6   ar
    34    24    20   ar
    35    32    25   ar
    36    24     4   ar
    37    32    28   ar
    38    12     7   ar
    39    18    13   ar
    40     1    33    1
    41     1    34    1
    42     2    35    1
    43     3    36    1
    44     8    37    1
    45     9    38    1
    46    10    39    1
    47    11    40    1
    48    14    41    1
    49    17    42    1
    50    21    43    1
    51    22    44    1
    52    23    45    1
    53    27    46    1
    54    30    47    1
    55    31    48    1
