@<TRIPOS>MOLECULE
*****
 48 55 0 0 0
SMALL
GASTEIGER

@<TRIPOS>ATOM
      1 C          -4.9772    0.6296   -0.7022 C.3     1  UNL1       -0.0080
      2 C          -6.1397    0.1483    0.1354 C.2     1  UNL1       -0.0791
      3 C          -5.7702   -0.7176    1.0852 C.2     1  UNL1       -0.0573
      4 C          -4.3405   -0.8445    0.9657 C.ar    1  UNL1       -0.0130
      5 C          -3.7787   -0.0644   -0.0760 C.ar    1  UNL1       -0.0276
      6 C          -2.3525    0.0273   -0.4207 C.ar    1  UNL1       -0.0049
      7 C          -1.7917    0.7470   -1.5603 C.ar    1  UNL1       -0.0093
      8 C          -2.5818    1.4037   -2.5454 C.ar    1  UNL1       -0.0534
      9 C          -2.0668    2.0708   -3.6616 C.ar    1  UNL1       -0.0611
     10 C          -0.7078    2.1239   -3.8468 C.ar    1  UNL1       -0.0611
     11 C           0.1144    1.5046   -2.9150 C.ar    1  UNL1       -0.0534
     12 C          -0.3755    0.8017   -1.7730 C.ar    1  UNL1       -0.0095
     13 C           0.5290    0.2058   -0.8343 C.ar    1  UNL1       -0.0061
     14 C           1.9468    0.2405   -0.9712 C.ar    1  UNL1       -0.0268
     15 C           2.7929   -0.2084    0.0382 C.ar    1  UNL1        0.0801
     16 N           2.3129   -0.6447    1.2130 N.ar    1  UNL1       -0.2537
     17 C           0.9669   -0.7536    1.3033 C.ar    1  UNL1        0.0366
     18 C           0.0161   -0.4329    0.3076 C.ar    1  UNL1        0.0092
     19 C          -1.4032   -0.6546    0.4382 C.ar    1  UNL1        0.0004
     20 C          -2.0207   -1.5583    1.3970 C.ar    1  UNL1       -0.0019
     21 C          -1.3861   -2.5721    2.0832 C.ar    1  UNL1       -0.0160
     22 S          -2.4398   -3.4430    3.1314 S.2     1  UNL1       -0.1038
     23 C          -3.8003   -2.5589    2.5888 C.ar    1  UNL1       -0.0160
     24 C          -3.4384   -1.6276    1.6465 C.ar    1  UNL1       -0.0029
     25 C           4.2454   -0.1455   -0.0580 C.ar    1  UNL1        0.0614
     26 S           5.1389   -0.4191   -1.5284 S.2     1  UNL1       -0.0924
     27 C           6.6794   -0.1078   -0.7789 C.ar    1  UNL1       -0.0145
     28 C           6.4535    0.1560    0.5288 C.ar    1  UNL1        0.0073
     29 C           7.1338    0.5034    1.7270 C.ar    1  UNL1       -0.0361
     30 C           6.1555    0.6331    2.7388 C.ar    1  UNL1        0.0028
     31 N           4.8800    0.3500    2.2552 N.ar    1  UNL1       -0.3597
     32 C           5.1378    0.1105    0.9296 C.ar    1  UNL1        0.0629
     33 H          -4.8898    1.7176   -0.6258 H       1  UNL1        0.0356
     34 H          -5.1455    0.2935   -1.7295 H       1  UNL1        0.0356
     35 H          -7.1597    0.4624   -0.0436 H       1  UNL1        0.0575
     36 H          -6.4015   -1.2223    1.7951 H       1  UNL1        0.0621
     37 H          -3.6586    1.4112   -2.4964 H       1  UNL1        0.0624
     38 H          -2.7360    2.5394   -4.3741 H       1  UNL1        0.0618
     39 H          -0.2797    2.6498   -4.6989 H       1  UNL1        0.0618
     40 H           1.1785    1.6008   -3.1125 H       1  UNL1        0.0624
     41 H           2.4102    0.6404   -1.8605 H       1  UNL1        0.0645
     42 H           0.6565   -1.0648    2.2991 H       1  UNL1        0.0836
     43 H          -0.3616   -2.9080    2.0386 H       1  UNL1        0.0700
     44 H          -4.7842   -2.8016    2.9675 H       1  UNL1        0.0700
     45 H           7.6026   -0.1460   -1.3440 H       1  UNL1        0.0700
     46 H           8.1949    0.6687    1.8615 H       1  UNL1        0.0639
     47 H           6.2725    0.9265    3.7779 H       1  UNL1        0.0807
     48 H           3.9690    0.3293    2.7048 H       1  UNL1        0.1654
@<TRIPOS>BOND
     1     1     2    1
     2     2     3    2
     3     3     4    1
     4     4     5   ar
     5     5     6   ar
     6     6     7   ar
     7     7     8   ar
     8     8     9   ar
     9     9    10   ar
    10    10    11   ar
    11    11    12   ar
    12    12    13   ar
    13    13    14   ar
    14    14    15   ar
    15    15    16   ar
    16    16    17   ar
    17    17    18   ar
    18    18    19   ar
    19    19    20   ar
    20    20    21   ar
    21    21    22   ar
    22    22    23   ar
    23    23    24   ar
    24    15    25    1
    25    25    26   ar
    26    26    27   ar
    27    27    28   ar
    28    28    29   ar
    29    29    30   ar
    30    30    31   ar
    31    31    32   ar
    32     5     1    1
    33    19     6   ar
    34    24    20   ar
    35    32    25   ar
    36    24     4   ar
    37    32    28   ar
    38    12     7   ar
    39    18    13   ar
    40     1    33    1
    41     1    34    1
    42     2    35    1
    43     3    36    1
    44     8    37    1
    45     9    38    1
    46    10    39    1
    47    11    40    1
    48    14    41    1
    49    17    42    1
    50    21    43    1
    51    23    44    1
    52    27    45    1
    53    29    46    1
    54    30    47    1
    55    31    48    1
