@<TRIPOS>MOLECULE
*****
 41 48 0 0 0
SMALL
GASTEIGER

@<TRIPOS>ATOM
      1 C           4.6969    1.0177   -1.1051 C.3     1  UNL1       -0.0079
      2 C           5.9769    0.4197   -0.5654 C.2     1  UNL1       -0.0790
      3 C           5.7579   -0.5399    0.3452 C.2     1  UNL1       -0.0558
      4 C           4.3233   -0.6550    0.4723 C.ar    1  UNL1        0.0069
      5 C           3.6449    0.2339   -0.3618 C.ar    1  UNL1       -0.0259
      6 C           2.2199    0.3001   -0.4119 C.ar    1  UNL1       -0.0003
      7 C           1.4697    1.2151   -1.1894 C.ar    1  UNL1        0.0285
      8 C           1.9398    2.2049   -2.0206 C.ar    1  UNL1        0.1000
      9 O           0.9043    2.8918   -2.5787 O.2     1  UNL1       -0.4698
     10 C          -0.2448    2.3405   -2.1049 C.ar    1  UNL1        0.1000
     11 C           0.0462    1.3066   -1.2462 C.ar    1  UNL1        0.0282
     12 C          -0.8788    0.4816   -0.5789 C.ar    1  UNL1       -0.0037
     13 C          -2.2934    0.6627   -0.7201 C.ar    1  UNL1       -0.0429
     14 C          -3.2379   -0.1786   -0.1237 C.ar    1  UNL1        0.0175
     15 C          -4.6842    0.0065   -0.2476 C.ar    1  UNL1        0.0215
     16 C          -5.6654   -0.0902    0.7236 C.ar    1  UNL1       -0.0469
     17 C          -6.9746    0.1553    0.2164 C.ar    1  UNL1       -0.0541
     18 C          -6.9592    0.4304   -1.1311 C.ar    1  UNL1       -0.0237
     19 S          -5.3775    0.3904   -1.7744 S.2     1  UNL1       -0.0966
     20 C          -2.6960   -1.2683    0.6041 C.ar    1  UNL1        0.1087
     21 N          -3.4080   -2.2342    1.2156 N.ar    1  UNL1       -0.1901
     22 S          -2.3335   -3.3099    1.8482 S.2     1  UNL1        0.1165
     23 N          -0.9192   -2.6147    1.3863 N.ar    1  UNL1       -0.1901
     24 C          -1.1824   -1.4606    0.7534 C.ar    1  UNL1        0.1088
     25 C          -0.1980   -0.5285    0.2091 C.ar    1  UNL1        0.0208
     26 C           1.3164   -0.5700    0.3563 C.ar    1  UNL1        0.0211
     27 C           2.0617   -1.4262    1.2892 C.ar    1  UNL1        0.1088
     28 N           1.5542   -2.2110    2.2533 N.ar    1  UNL1       -0.1901
     29 S           2.7882   -3.0013    3.0053 S.2     1  UNL1        0.1165
     30 N           4.0858   -2.3442    2.2217 N.ar    1  UNL1       -0.1902
     31 C           3.5860   -1.4781    1.3249 C.ar    1  UNL1        0.1079
     32 H           4.6296    0.8541   -2.1844 H       1  UNL1        0.0356
     33 H           4.6533    2.0820   -0.8573 H       1  UNL1        0.0356
     34 H           6.9576    0.7447   -0.8848 H       1  UNL1        0.0575
     35 H           6.4816   -1.1244    0.8904 H       1  UNL1        0.0621
     36 H           2.9117    2.5603   -2.3260 H       1  UNL1        0.1036
     37 H          -1.1519    2.7939   -2.4797 H       1  UNL1        0.1036
     38 H          -2.6637    1.4987   -1.3123 H       1  UNL1        0.0631
     39 H          -5.4555   -0.3314    1.7594 H       1  UNL1        0.0629
     40 H          -7.8795    0.1260    0.8108 H       1  UNL1        0.0623
     41 H          -7.8023    0.6494   -1.7719 H       1  UNL1        0.0693
@<TRIPOS>BOND
     1     1     2    1
     2     2     3    2
     3     3     4    1
     4     4     5   ar
     5     5     6   ar
     6     6     7   ar
     7     7     8   ar
     8     8     9   ar
     9     9    10   ar
    10    10    11   ar
    11    11    12   ar
    12    12    13   ar
    13    13    14   ar
    14    14    15    1
    15    15    16   ar
    16    16    17   ar
    17    17    18   ar
    18    18    19   ar
    19    14    20   ar
    20    20    21   ar
    21    21    22   ar
    22    22    23   ar
    23    23    24   ar
    24    24    25   ar
    25    25    26   ar
    26    26    27   ar
    27    27    28   ar
    28    28    29   ar
    29    29    30   ar
    30    30    31   ar
    31     5     1    1
    32    26     6   ar
    33    31    27   ar
    34    31     4   ar
    35    11     7   ar
    36    25    12   ar
    37    19    15   ar
    38    24    20   ar
    39     1    32    1
    40     1    33    1
    41     2    34    1
    42     3    35    1
    43     8    36    1
    44    10    37    1
    45    13    38    1
    46    16    39    1
    47    17    40    1
    48    18    41    1
