@<TRIPOS>MOLECULE
*****
 48 55 0 0 0
SMALL
GASTEIGER

@<TRIPOS>ATOM
      1 SI          3.5874   -1.8320   -2.5132 Si      1  UNL1        0.0000
      2 C           4.2948   -0.5245   -1.3896 C.2     1  UNL1        0.0000
      3 C           3.3458    0.0148   -0.5941 C.ar    1  UNL1        0.0000
      4 C           3.5620    1.1690    0.2976 C.ar    1  UNL1        0.0000
      5 C           2.4817    1.7305    0.8897 C.ar    1  UNL1        0.0000
      6 C           1.1964    1.1307    0.7073 C.ar    1  UNL1        0.0000
      7 S          -0.2119    1.8449    1.3025 S.2     1  UNL1        0.0000
      8 C          -1.2365    0.5653    0.7420 C.ar    1  UNL1        0.0000
      9 C          -0.4511   -0.5040    0.2713 C.ar    1  UNL1        0.0000
     10 C           0.9085   -0.0382    0.0237 C.ar    1  UNL1        0.0000
     11 C           1.9871   -0.5883   -0.7649 C.ar    1  UNL1        0.0000
     12 C           1.9155   -1.4882   -1.7660 C.2     1  UNL1        0.0000
     13 C          -1.1120   -1.7699    0.0908 C.ar    1  UNL1        0.0000
     14 C          -0.3287   -2.9432   -0.0398 C.ar    1  UNL1        0.0000
     15 C          -0.8968   -4.1941   -0.2626 C.ar    1  UNL1        0.0000
     16 C          -2.2707   -4.3072   -0.3352 C.ar    1  UNL1        0.0000
     17 C          -3.0678   -3.1765   -0.1395 C.ar    1  UNL1        0.0000
     18 C          -2.5303   -1.8835    0.1118 C.ar    1  UNL1        0.0000
     19 C          -3.3315   -0.7411    0.4038 C.ar    1  UNL1        0.0000
     20 C          -4.7954   -0.7920    0.3956 C.ar    1  UNL1        0.0000
     21 C          -5.6881    0.2524    0.7256 C.ar    1  UNL1        0.0000
     22 C          -4.9809    1.3823    1.0726 C.ar    1  UNL1        0.0000
     23 C          -5.5609    2.5688    1.4381 C.ar    1  UNL1        0.0000
     24 N          -4.5338    3.4447    1.6846 N.ar    1  UNL1        0.0000
     25 C          -3.3198    2.8225    1.4713 C.ar    1  UNL1        0.0000
     26 C          -3.5579    1.5177    1.0988 C.ar    1  UNL1        0.0000
     27 C          -2.6527    0.4803    0.7618 C.ar    1  UNL1        0.0000
     28 C           4.8247    1.7870    0.5518 C.ar    1  UNL1        0.0000
     29 C           5.3342    2.9960    0.1063 C.ar    1  UNL1        0.0000
     30 N           6.6052    3.3234    0.5397 N.ar    1  UNL1        0.0000
     31 C           7.0546    2.3605    1.3123 C.ar    1  UNL1        0.0000
     32 S           6.0030    1.0311    1.5607 S.2     1  UNL1        0.0000
     33 H           3.6615   -1.4496   -3.9432 H       1  UNL1        0.0000
     34 H           4.0825   -3.1898   -2.1830 H       1  UNL1        0.0000
     35 H           5.3298   -0.2313   -1.4696 H       1  UNL1        0.0000
     36 H           2.5721    2.6011    1.5341 H       1  UNL1        0.0000
     37 H           1.0345   -1.9721   -2.1552 H       1  UNL1        0.0000
     38 H           0.7503   -2.9050    0.0794 H       1  UNL1        0.0000
     39 H          -0.2649   -5.0718   -0.3643 H       1  UNL1        0.0000
     40 H          -2.7329   -5.2752   -0.5092 H       1  UNL1        0.0000
     41 H          -4.1397   -3.3469   -0.1628 H       1  UNL1        0.0000
     42 H          -5.2901   -1.7189    0.1095 H       1  UNL1        0.0000
     43 H          -6.7631    0.1520    0.7005 H       1  UNL1        0.0000
     44 H          -6.5925    2.8763    1.5414 H       1  UNL1        0.0000
     45 H          -4.6456    4.4089    1.9700 H       1  UNL1        0.0000
     46 H          -2.4209    3.4012    1.6124 H       1  UNL1        0.0000
     47 H           4.8105    3.6837   -0.5476 H       1  UNL1        0.0000
     48 H           8.0343    2.3983    1.7704 H       1  UNL1        0.0000
@<TRIPOS>BOND
     1     1     2    1
     2     2     3    2
     3     3     4   ar
     4     4     5   ar
     5     5     6   ar
     6     6     7   ar
     7     7     8   ar
     8     8     9   ar
     9     9    10   ar
    10    10    11   ar
    11    11    12    2
    12     9    13   ar
    13    13    14   ar
    14    14    15   ar
    15    15    16   ar
    16    16    17   ar
    17    17    18   ar
    18    18    19   ar
    19    19    20   ar
    20    20    21   ar
    21    21    22   ar
    22    22    23   ar
    23    23    24   ar
    24    24    25   ar
    25    25    26   ar
    26    26    27   ar
    27     4    28    1
    28    28    29   ar
    29    29    30   ar
    30    30    31   ar
    31    31    32   ar
    32    12     1    1
    33    18    13   ar
    34    27    19   ar
    35    32    28   ar
    36    11     3   ar
    37    26    22   ar
    38    10     6   ar
    39    27     8   ar
    40     1    33    1
    41     1    34    1
    42     2    35    1
    43     5    36    1
    44    12    37    1
    45    14    38    1
    46    15    39    1
    47    16    40    1
    48    17    41    1
    49    20    42    1
    50    21    43    1
    51    23    44    1
    52    24    45    1
    53    25    46    1
    54    29    47    1
    55    31    48    1
