@<TRIPOS>MOLECULE
*****
 49 56 0 0 0
SMALL
GASTEIGER

@<TRIPOS>ATOM
      1 C          -4.5921    1.9582    0.7017 C.3     1  UNL1       -0.0080
      2 C          -5.8758    1.6671   -0.0197 C.2     1  UNL1       -0.0791
      3 C          -5.7672    0.6107   -0.8356 C.2     1  UNL1       -0.0573
      4 C          -4.4005    0.0976   -0.7437 C.ar    1  UNL1       -0.0135
      5 C          -3.6850    0.8946    0.1531 C.ar    1  UNL1       -0.0275
      6 C          -2.3207    0.6580    0.3998 C.ar    1  UNL1       -0.0019
      7 C          -1.5050    1.3704    1.3145 C.ar    1  UNL1        0.0285
      8 C          -1.8556    2.3614    2.1998 C.ar    1  UNL1        0.1000
      9 O          -0.7640    2.7735    2.9088 O.2     1  UNL1       -0.4698
     10 C           0.2985    2.0428    2.4692 C.ar    1  UNL1        0.1000
     11 C          -0.1127    1.1663    1.4965 C.ar    1  UNL1        0.0282
     12 C           0.6831    0.2813    0.7561 C.ar    1  UNL1       -0.0060
     13 C           2.0915    0.1635    0.9016 C.ar    1  UNL1       -0.0450
     14 C           2.8273   -0.6432    0.0380 C.ar    1  UNL1       -0.0086
     15 C           2.1312   -1.2819   -0.9877 C.ar    1  UNL1       -0.0529
     16 C           0.7310   -1.1676   -1.1066 C.ar    1  UNL1       -0.0528
     17 C          -0.0911   -0.4470   -0.2073 C.ar    1  UNL1       -0.0089
     18 C          -1.6026   -0.3808   -0.3023 C.ar    1  UNL1       -0.0015
     19 C          -2.4477   -1.3060   -1.0681 C.ar    1  UNL1       -0.0090
     20 C          -2.0079   -2.5759   -1.5264 C.ar    1  UNL1       -0.0534
     21 C          -2.7836   -3.4318   -2.3165 C.ar    1  UNL1       -0.0611
     22 C          -4.0700   -3.0680   -2.6595 C.ar    1  UNL1       -0.0611
     23 C          -4.5895   -1.8807   -2.1587 C.ar    1  UNL1       -0.0534
     24 C          -3.8213   -1.0206   -1.3398 C.ar    1  UNL1       -0.0099
     25 C           4.2862   -0.7636    0.1794 C.ar    1  UNL1        0.0468
     26 S           5.0345   -2.3188    0.0362 S.2     1  UNL1       -0.0923
     27 C           6.6058   -1.6980    0.3182 C.ar    1  UNL1        0.0038
     28 C           6.5757   -0.3450    0.5275 C.ar    1  UNL1        0.0968
     29 N           7.6966    0.3876    0.7764 N.ar    1  UNL1       -0.2514
     30 C           7.3840    1.7016    0.9435 C.ar    1  UNL1        0.0464
     31 C           6.0927    2.2378    0.8749 C.ar    1  UNL1        0.0464
     32 N           4.9586    1.5257    0.6317 N.ar    1  UNL1       -0.2508
     33 C           5.2394    0.1996    0.4550 C.ar    1  UNL1        0.1039
     34 H          -4.2342    2.9607    0.4503 H       1  UNL1        0.0356
     35 H          -4.7378    1.8462    1.7797 H       1  UNL1        0.0356
     36 H          -6.7771    2.2478    0.1159 H       1  UNL1        0.0575
     37 H          -6.5475    0.2034   -1.4568 H       1  UNL1        0.0621
     38 H          -2.7687    2.8720    2.4635 H       1  UNL1        0.1036
     39 H           1.2442    2.2776    2.9365 H       1  UNL1        0.1036
     40 H           2.6051    0.7250    1.6779 H       1  UNL1        0.0630
     41 H           2.6632   -1.8621   -1.7395 H       1  UNL1        0.0624
     42 H           0.3010   -1.6217   -1.9962 H       1  UNL1        0.0624
     43 H          -1.0441   -2.9698   -1.2154 H       1  UNL1        0.0624
     44 H          -2.3785   -4.3862   -2.6423 H       1  UNL1        0.0618
     45 H          -4.6837   -3.7206   -3.2735 H       1  UNL1        0.0618
     46 H          -5.6244   -1.6460   -2.3945 H       1  UNL1        0.0624
     47 H           7.4682   -2.3485    0.3198 H       1  UNL1        0.0715
     48 H           8.2327    2.3498    1.1436 H       1  UNL1        0.0845
     49 H           5.9379    3.3035    1.0207 H       1  UNL1        0.0845
@<TRIPOS>BOND
     1     1     2    1
     2     2     3    2
     3     3     4    1
     4     4     5   ar
     5     5     6   ar
     6     6     7   ar
     7     7     8   ar
     8     8     9   ar
     9     9    10   ar
    10    10    11   ar
    11    11    12   ar
    12    12    13   ar
    13    13    14   ar
    14    14    15   ar
    15    15    16   ar
    16    16    17   ar
    17    17    18   ar
    18    18    19   ar
    19    19    20   ar
    20    20    21   ar
    21    21    22   ar
    22    22    23   ar
    23    23    24   ar
    24    14    25    1
    25    25    26   ar
    26    26    27   ar
    27    27    28   ar
    28    28    29   ar
    29    29    30   ar
    30    30    31   ar
    31    31    32   ar
    32    32    33   ar
    33     5     1    1
    34    18     6   ar
    35    24    19   ar
    36    33    25   ar
    37    24     4   ar
    38    33    28   ar
    39    11     7   ar
    40    17    12   ar
    41     1    34    1
    42     1    35    1
    43     2    36    1
    44     3    37    1
    45     8    38    1
    46    10    39    1
    47    13    40    1
    48    15    41    1
    49    16    42    1
    50    20    43    1
    51    21    44    1
    52    22    45    1
    53    23    46    1
    54    27    47    1
    55    30    48    1
    56    31    49    1
