@<TRIPOS>MOLECULE
*****
 43 50 0 0 0
SMALL
GASTEIGER

@<TRIPOS>ATOM
      1 C          -4.9896   -0.1658    0.0632 C.3     1  UNL1       -0.0080
      2 C          -5.6794   -0.2043    1.4147 C.2     1  UNL1       -0.0791
      3 C          -4.8240   -0.2105    2.4503 C.2     1  UNL1       -0.0572
      4 C          -3.5087   -0.1768    1.8710 C.ar    1  UNL1       -0.0105
      5 C          -3.5369   -0.1492    0.4599 C.ar    1  UNL1       -0.0273
      6 C          -2.3506   -0.1129   -0.3649 C.ar    1  UNL1        0.0011
      7 C          -2.2583   -0.0832   -1.7833 C.ar    1  UNL1        0.0286
      8 C          -3.2825   -0.0820   -2.7048 C.ar    1  UNL1        0.1000
      9 O          -2.7870   -0.0482   -3.9871 O.2     1  UNL1       -0.4698
     10 C          -1.4187   -0.0270   -3.9032 C.ar    1  UNL1        0.1001
     11 C          -1.0999   -0.0479   -2.5841 C.ar    1  UNL1        0.0312
     12 C           0.1587   -0.0396   -1.9478 C.ar    1  UNL1        0.0321
     13 C           1.4518   -0.0082   -2.4478 C.ar    1  UNL1       -0.0068
     14 C           2.2714   -0.0172   -1.3206 C.ar    1  UNL1        0.1448
     15 O           1.4764   -0.0529   -0.1815 O.2     1  UNL1       -0.4536
     16 C           0.1614   -0.0669   -0.5732 C.ar    1  UNL1        0.1448
     17 C          -1.0053   -0.1021    0.2214 C.ar    1  UNL1        0.0367
     18 C          -1.0413   -0.1305    1.6268 C.ar    1  UNL1        0.0317
     19 C          -0.0080   -0.1309    2.5278 C.ar    1  UNL1        0.1001
     20 O          -0.4988   -0.1645    3.8059 O.2     1  UNL1       -0.4698
     21 C          -1.8648   -0.1859    3.7265 C.ar    1  UNL1        0.1000
     22 C          -2.2394   -0.1662    2.4118 C.ar    1  UNL1        0.0280
     23 C           3.7053    0.0051   -1.2613 C.ar    1  UNL1        0.0783
     24 S           4.7482    0.0502   -2.6527 S.2     1  UNL1       -0.0909
     25 C           6.2064    0.0549   -1.7068 C.ar    1  UNL1       -0.0144
     26 C           5.8458    0.0228   -0.4089 C.ar    1  UNL1        0.0074
     27 C           6.4063    0.0056    0.8913 C.ar    1  UNL1       -0.0361
     28 C           5.3303   -0.0304    1.8040 C.ar    1  UNL1        0.0028
     29 N           4.1018   -0.0371    1.1482 N.ar    1  UNL1       -0.3597
     30 C           4.4913   -0.0043   -0.1604 C.ar    1  UNL1        0.0644
     31 H          -5.2660    0.7434   -0.4780 H       1  UNL1        0.0356
     32 H          -5.2355   -1.0616   -0.5138 H       1  UNL1        0.0356
     33 H          -6.7560   -0.2245    1.5159 H       1  UNL1        0.0575
     34 H          -5.0558   -0.2353    3.5017 H       1  UNL1        0.0621
     35 H          -4.3608   -0.1010   -2.6503 H       1  UNL1        0.1036
     36 H          -0.8829    0.0006   -4.8408 H       1  UNL1        0.1036
     37 H           1.7789    0.0176   -3.4773 H       1  UNL1        0.0662
     38 H           1.0677   -0.1113    2.4543 H       1  UNL1        0.1036
     39 H          -2.3873   -0.2134    4.6719 H       1  UNL1        0.1036
     40 H           7.1833    0.0801   -2.1672 H       1  UNL1        0.0700
     41 H           7.4541    0.0172    1.1611 H       1  UNL1        0.0639
     42 H           5.3455   -0.0520    2.8864 H       1  UNL1        0.0807
     43 H           3.1529   -0.0598    1.5017 H       1  UNL1        0.1654
@<TRIPOS>BOND
     1     1     2    1
     2     2     3    2
     3     3     4    1
     4     4     5   ar
     5     5     6   ar
     6     6     7   ar
     7     7     8   ar
     8     8     9   ar
     9     9    10   ar
    10    10    11   ar
    11    11    12   ar
    12    12    13   ar
    13    13    14   ar
    14    14    15   ar
    15    15    16   ar
    16    16    17   ar
    17    17    18   ar
    18    18    19   ar
    19    19    20   ar
    20    20    21   ar
    21    21    22   ar
    22    14    23    1
    23    23    24   ar
    24    24    25   ar
    25    25    26   ar
    26    26    27   ar
    27    27    28   ar
    28    28    29   ar
    29    29    30   ar
    30     5     1    1
    31    17     6   ar
    32    22    18   ar
    33    30    23   ar
    34    22     4   ar
    35    30    26   ar
    36    11     7   ar
    37    16    12   ar
    38     1    31    1
    39     1    32    1
    40     2    33    1
    41     3    34    1
    42     8    35    1
    43    10    36    1
    44    13    37    1
    45    19    38    1
    46    21    39    1
    47    25    40    1
    48    27    41    1
    49    28    42    1
    50    29    43    1
