@<TRIPOS>MOLECULE
*****
 40 46 0 0 0
SMALL
GASTEIGER

@<TRIPOS>ATOM
      1 C           3.7544   -1.9942    0.2092 C.3     1  UNL1       -0.0080
      2 C           5.1479   -1.5564   -0.2013 C.2     1  UNL1       -0.0791
      3 C           5.2095   -0.2715   -0.5845 C.2     1  UNL1       -0.0572
      4 C           3.8708    0.2359   -0.4583 C.ar    1  UNL1       -0.0105
      5 C           2.9542   -0.7323    0.0069 C.ar    1  UNL1       -0.0275
      6 C           1.5383   -0.4772    0.2211 C.ar    1  UNL1       -0.0049
      7 C           0.5126   -1.3647    0.6867 C.ar    1  UNL1       -0.0023
      8 C           0.7195   -2.6819    1.0289 C.ar    1  UNL1       -0.0160
      9 S          -0.7147   -3.4616    1.5589 S.2     1  UNL1       -0.1038
     10 C          -1.6450   -2.0416    1.3449 C.ar    1  UNL1       -0.0160
     11 C          -0.8876   -0.9966    0.8625 C.ar    1  UNL1       -0.0020
     12 C          -1.4141    0.2785    0.5955 C.ar    1  UNL1       -0.0005
     13 C          -0.4435    1.1892    0.1421 C.ar    1  UNL1       -0.0444
     14 C           0.9449    0.8404   -0.0369 C.ar    1  UNL1       -0.0057
     15 C           1.9236    1.7618   -0.5003 C.ar    1  UNL1        0.0282
     16 C           1.7697    3.0814   -0.8470 C.ar    1  UNL1        0.1000
     17 O           2.9712    3.6055   -1.2431 O.2     1  UNL1       -0.4698
     18 C           3.9077    2.6128   -1.1485 C.ar    1  UNL1        0.1000
     19 C           3.3082    1.4694   -0.6982 C.ar    1  UNL1        0.0278
     20 C          -2.8063    0.6238    0.7482 C.ar    1  UNL1        0.0438
     21 S          -3.3829    1.6772    1.9945 S.2     1  UNL1       -0.0939
     22 C          -5.0418    1.5527    1.4788 C.ar    1  UNL1       -0.0145
     23 C          -5.0729    0.7437    0.4001 C.ar    1  UNL1        0.0073
     24 C          -5.9732    0.1857   -0.5399 C.ar    1  UNL1       -0.0361
     25 C          -5.2086   -0.6039   -1.4265 C.ar    1  UNL1        0.0028
     26 N          -3.8536   -0.5792   -1.1007 N.ar    1  UNL1       -0.3598
     27 C          -3.8582    0.2375   -0.0057 C.ar    1  UNL1        0.0614
     28 H           3.4059   -2.7972   -0.4464 H       1  UNL1        0.0356
     29 H           3.7532   -2.3040    1.2580 H       1  UNL1        0.0356
     30 H           5.9968   -2.2262   -0.1801 H       1  UNL1        0.0575
     31 H           6.0714    0.2808   -0.9186 H       1  UNL1        0.0621
     32 H           1.6231   -3.2685    1.0152 H       1  UNL1        0.0700
     33 H          -2.6984   -2.0626    1.5914 H       1  UNL1        0.0700
     34 H          -0.7660    2.2043   -0.0884 H       1  UNL1        0.0630
     35 H           0.9397    3.7729   -0.8749 H       1  UNL1        0.1036
     36 H           4.9127    2.8902   -1.4324 H       1  UNL1        0.1036
     37 H          -5.8354    2.0740    1.9939 H       1  UNL1        0.0700
     38 H          -7.0451    0.3237   -0.5922 H       1  UNL1        0.0639
     39 H          -5.5303   -1.1891   -2.2787 H       1  UNL1        0.0807
     40 H          -3.0578   -1.0327   -1.5343 H       1  UNL1        0.1654
@<TRIPOS>BOND
     1     1     2    1
     2     2     3    2
     3     3     4    1
     4     4     5   ar
     5     5     6   ar
     6     6     7   ar
     7     7     8   ar
     8     8     9   ar
     9     9    10   ar
    10    10    11   ar
    11    11    12   ar
    12    12    13   ar
    13    13    14   ar
    14    14    15   ar
    15    15    16   ar
    16    16    17   ar
    17    17    18   ar
    18    18    19   ar
    19    12    20    1
    20    20    21   ar
    21    21    22   ar
    22    22    23   ar
    23    23    24   ar
    24    24    25   ar
    25    25    26   ar
    26    26    27   ar
    27     5     1    1
    28    14     6   ar
    29    19    15   ar
    30    27    20   ar
    31    19     4   ar
    32    27    23   ar
    33    11     7   ar
    34     1    28    1
    35     1    29    1
    36     2    30    1
    37     3    31    1
    38     8    32    1
    39    10    33    1
    40    13    34    1
    41    16    35    1
    42    18    36    1
    43    22    37    1
    44    24    38    1
    45    25    39    1
    46    26    40    1
