@<TRIPOS>MOLECULE
*****
 43 50 0 0 0
SMALL
GASTEIGER

@<TRIPOS>ATOM
      1 C           5.3210    0.7733    0.3156 C.3     1  UNL1       -0.0079
      2 C           6.4594   -0.2193    0.2606 C.2     1  UNL1       -0.0790
      3 C           6.0426   -1.4718    0.0319 C.2     1  UNL1       -0.0558
      4 C           4.6037   -1.4025   -0.0812 C.ar    1  UNL1        0.0069
      5 C           4.1136   -0.1017    0.0770 C.ar    1  UNL1       -0.0260
      6 C           2.7172    0.2199    0.0065 C.ar    1  UNL1       -0.0029
      7 C           2.1372    1.5193    0.1567 C.ar    1  UNL1       -0.0022
      8 C           2.8503    2.6749    0.3955 C.ar    1  UNL1       -0.0160
      9 S           1.8605    4.0669    0.5240 S.2     1  UNL1       -0.1038
     10 C           0.4474    3.1457    0.2609 C.ar    1  UNL1       -0.0160
     11 C           0.7194    1.8054    0.0792 C.ar    1  UNL1       -0.0025
     12 C          -0.2951    0.8416   -0.1559 C.ar    1  UNL1       -0.0084
     13 C          -1.6865    1.1464   -0.2269 C.ar    1  UNL1       -0.0452
     14 C          -2.6344    0.1526   -0.4592 C.ar    1  UNL1       -0.0096
     15 C          -2.1802   -1.1490   -0.6230 C.ar    1  UNL1       -0.0529
     16 C          -0.8086   -1.4490   -0.5526 C.ar    1  UNL1       -0.0528
     17 C           0.2087   -0.4864   -0.3173 C.ar    1  UNL1       -0.0074
     18 C           1.6737   -0.7911   -0.2388 C.ar    1  UNL1        0.0189
     19 C           2.2197   -2.1471   -0.4011 C.ar    1  UNL1        0.1087
     20 N           1.5311   -3.2810   -0.6356 N.ar    1  UNL1       -0.1901
     21 S           2.5967   -4.5360   -0.7367 S.2     1  UNL1        0.1165
     22 N           4.0210   -3.7390   -0.4915 N.ar    1  UNL1       -0.1902
     23 C           3.7076   -2.4445   -0.3189 C.ar    1  UNL1        0.1079
     24 C          -4.0533    0.4678   -0.5320 C.ar    1  UNL1        0.0336
     25 S          -4.6931    1.5760   -1.6892 S.2     1  UNL1       -0.0949
     26 C          -6.3126    1.3661   -1.1398 C.ar    1  UNL1       -0.0155
     27 C          -6.2935    0.4834   -0.1166 C.ar    1  UNL1       -0.0032
     28 C          -7.3036   -0.0584    0.7136 C.ar    1  UNL1       -0.0465
     29 C          -6.7915   -0.9504    1.6627 C.ar    1  UNL1       -0.0231
     30 S          -5.0516   -1.2078    1.6338 S.2     1  UNL1       -0.0955
     31 C          -5.0540   -0.0398    0.2539 C.ar    1  UNL1        0.0341
     32 H           5.4415    1.5147   -0.4795 H       1  UNL1        0.0356
     33 H           5.2880    1.2399    1.3043 H       1  UNL1        0.0356
     34 H           7.4943    0.0650    0.3935 H       1  UNL1        0.0575
     35 H           6.6337   -2.3692   -0.0555 H       1  UNL1        0.0621
     36 H           3.9072    2.8370    0.5112 H       1  UNL1        0.0700
     37 H          -0.5008    3.6629    0.2581 H       1  UNL1        0.0700
     38 H          -2.0338    2.1667   -0.0918 H       1  UNL1        0.0630
     39 H          -2.8814   -1.9593   -0.8150 H       1  UNL1        0.0624
     40 H          -0.5690   -2.4975   -0.6951 H       1  UNL1        0.0624
     41 H          -7.1389    1.8939   -1.5945 H       1  UNL1        0.0700
     42 H          -8.3591    0.1747    0.6454 H       1  UNL1        0.0629
     43 H          -7.3544   -1.4933    2.4099 H       1  UNL1        0.0694
@<TRIPOS>BOND
     1     1     2    1
     2     2     3    2
     3     3     4    1
     4     4     5   ar
     5     5     6   ar
     6     6     7   ar
     7     7     8   ar
     8     8     9   ar
     9     9    10   ar
    10    10    11   ar
    11    11    12   ar
    12    12    13   ar
    13    13    14   ar
    14    14    15   ar
    15    15    16   ar
    16    16    17   ar
    17    17    18   ar
    18    18    19   ar
    19    19    20   ar
    20    20    21   ar
    21    21    22   ar
    22    22    23   ar
    23    14    24    1
    24    24    25   ar
    25    25    26   ar
    26    26    27   ar
    27    27    28   ar
    28    28    29   ar
    29    29    30   ar
    30    30    31   ar
    31     5     1    1
    32    18     6   ar
    33    23    19   ar
    34    31    24   ar
    35    23     4   ar
    36    31    27   ar
    37    11     7   ar
    38    17    12   ar
    39     1    32    1
    40     1    33    1
    41     2    34    1
    42     3    35    1
    43     8    36    1
    44    10    37    1
    45    13    38    1
    46    15    39    1
    47    16    40    1
    48    26    41    1
    49    28    42    1
    50    29    43    1
