@<TRIPOS>MOLECULE
*****
 46 53 0 0 0
SMALL
GASTEIGER

@<TRIPOS>ATOM
      1 C          -5.0860    1.5904    0.4167 C.3     1  UNL1       -0.0080
      2 C          -6.3043    0.6916    0.3460 C.2     1  UNL1       -0.0791
      3 C          -5.9962   -0.5921    0.1083 C.2     1  UNL1       -0.0573
      4 C          -4.5622   -0.6366    0.0048 C.ar    1  UNL1       -0.0121
      5 C          -3.9540    0.6218    0.1770 C.ar    1  UNL1       -0.0275
      6 C          -2.5190    0.8434    0.1187 C.ar    1  UNL1       -0.0039
      7 C          -1.8202    2.0781    0.2816 C.ar    1  UNL1       -0.0022
      8 C          -2.4259    3.2946    0.5291 C.ar    1  UNL1       -0.0160
      9 S          -1.3100    4.6036    0.6771 S.2     1  UNL1       -0.1038
     10 C           0.0309    3.5702    0.4114 C.ar    1  UNL1       -0.0160
     11 C          -0.4182    2.2928    0.2242 C.ar    1  UNL1       -0.0020
     12 C           0.4373    1.1711   -0.0239 C.ar    1  UNL1       -0.0014
     13 C           1.8434    1.2383   -0.1065 C.ar    1  UNL1       -0.0386
     14 C           2.3685   -0.0115   -0.3511 C.ar    1  UNL1        0.0211
     15 S           1.1428   -1.1950   -0.4794 S.2     1  UNL1       -0.0876
     16 C          -0.1551   -0.0733   -0.1964 C.ar    1  UNL1        0.0289
     17 C          -1.5755   -0.2592   -0.1314 C.ar    1  UNL1        0.0065
     18 C          -2.2520   -1.5020   -0.2952 C.ar    1  UNL1        0.0088
     19 C          -1.7498   -2.7612   -0.5380 C.ar    1  UNL1        0.0100
     20 N          -2.8066   -3.6474   -0.6159 N.ar    1  UNL1       -0.3659
     21 C          -3.9948   -2.9861   -0.4273 C.ar    1  UNL1        0.0100
     22 C          -3.6793   -1.6675   -0.2277 C.ar    1  UNL1        0.0074
     23 C           3.7596   -0.4001   -0.5040 C.ar    1  UNL1       -0.0031
     24 C           4.3068   -0.9238   -1.7012 C.ar    1  UNL1       -0.0529
     25 C           5.6847   -1.2816   -1.8591 C.ar    1  UNL1       -0.0606
     26 C           6.6545   -1.1530   -0.8415 C.ar    1  UNL1       -0.0535
     27 C           6.1104   -0.6401    0.3365 C.ar    1  UNL1       -0.0103
     28 C           6.8645   -0.4348    1.4652 C.ar    1  UNL1       -0.0166
     29 S           5.9065    0.1879    2.7486 S.2     1  UNL1       -0.1039
     30 C           4.4785    0.1774    1.7891 C.ar    1  UNL1       -0.0160
     31 C           4.7236   -0.2740    0.5122 C.ar    1  UNL1       -0.0027
     32 H          -5.0193    2.0453    1.4090 H       1  UNL1        0.0356
     33 H          -5.1383    2.3469   -0.3714 H       1  UNL1        0.0356
     34 H          -7.3113    1.0625    0.4763 H       1  UNL1        0.0575
     35 H          -6.6642   -1.4306    0.0114 H       1  UNL1        0.0621
     36 H          -3.4665    3.5450    0.6416 H       1  UNL1        0.0700
     37 H           1.0350    3.9689    0.4116 H       1  UNL1        0.0700
     38 H           2.4573    2.1236   -0.0010 H       1  UNL1        0.0635
     39 H          -0.7517   -3.1490   -0.6669 H       1  UNL1        0.0813
     40 H          -2.7142   -4.6404   -0.7861 H       1  UNL1        0.1648
     41 H          -4.9370   -3.5158   -0.4527 H       1  UNL1        0.0813
     42 H           3.6497   -1.0589   -2.5615 H       1  UNL1        0.0624
     43 H           6.0007   -1.6752   -2.8261 H       1  UNL1        0.0618
     44 H           7.6908   -1.4303   -0.9827 H       1  UNL1        0.0624
     45 H           7.9193   -0.6155    1.6195 H       1  UNL1        0.0699
     46 H           3.5466    0.5017    2.2312 H       1  UNL1        0.0700
@<TRIPOS>BOND
     1     1     2    1
     2     2     3    2
     3     3     4    1
     4     4     5   ar
     5     5     6   ar
     6     6     7   ar
     7     7     8   ar
     8     8     9   ar
     9     9    10   ar
    10    10    11   ar
    11    11    12   ar
    12    12    13   ar
    13    13    14   ar
    14    14    15   ar
    15    15    16   ar
    16    16    17   ar
    17    17    18   ar
    18    18    19   ar
    19    19    20   ar
    20    20    21   ar
    21    21    22   ar
    22    14    23    1
    23    23    24   ar
    24    24    25   ar
    25    25    26   ar
    26    26    27   ar
    27    27    28   ar
    28    28    29   ar
    29    29    30   ar
    30    30    31   ar
    31     5     1    1
    32    17     6   ar
    33    22    18   ar
    34    31    23   ar
    35    22     4   ar
    36    31    27   ar
    37    11     7   ar
    38    16    12   ar
    39     1    32    1
    40     1    33    1
    41     2    34    1
    42     3    35    1
    43     8    36    1
    44    10    37    1
    45    13    38    1
    46    19    39    1
    47    20    40    1
    48    21    41    1
    49    24    42    1
    50    25    43    1
    51    26    44    1
    52    28    45    1
    53    30    46    1
