@<TRIPOS>MOLECULE
*****
 41 47 0 0 0
SMALL
GASTEIGER

@<TRIPOS>ATOM
      1 C          -4.5850   -0.9832    0.9432 C.3     1  UNL1        0.0000
      2 C          -5.7862   -0.3115    0.3157 C.2     1  UNL1        0.0000
      3 C          -5.4504    0.6276   -0.5799 C.2     1  UNL1        0.0000
      4 C          -4.0087    0.6486   -0.6132 C.ar    1  UNL1        0.0000
      5 C          -3.4304   -0.2836    0.2676 C.ar    1  UNL1        0.0000
      6 C          -2.0031   -0.4638    0.4257 C.ar    1  UNL1        0.0000
      7 C          -1.3457   -1.3863    1.2965 C.ar    1  UNL1        0.0000
      8 C          -1.9897   -2.2691    2.1423 C.ar    1  UNL1        0.0000
      9 S          -0.9145   -3.2529    3.0674 S.2     1  UNL1        0.0000
     10 C           0.4603   -2.5197    2.3563 C.ar    1  UNL1        0.0000
     11 C           0.0502   -1.5723    1.4600 C.ar    1  UNL1        0.0000
     12 C           0.9422   -0.7652    0.6843 C.ar    1  UNL1        0.0000
     13 C           2.3494   -0.8483    0.7509 C.ar    1  UNL1        0.0000
     14 C           2.9452    0.0500   -0.1132 C.ar    1  UNL1        0.0000
     15 S           1.7407    0.9417   -0.9563 S.2     1  UNL1        0.0000
     16 C           0.3911    0.1595   -0.1917 C.ar    1  UNL1        0.0000
     17 C          -1.0311    0.3341   -0.3423 C.ar    1  UNL1        0.0000
     18 C          -1.6689    1.2704   -1.2253 C.ar    1  UNL1        0.0000
     19 C          -1.0597    2.1654   -2.0781 C.ar    1  UNL1        0.0000
     20 S          -2.1704    3.1231   -2.9783 S.2     1  UNL1        0.0000
     21 C          -3.5147    2.3645   -2.2472 C.ar    1  UNL1        0.0000
     22 C          -3.1156    1.4097   -1.3443 C.ar    1  UNL1        0.0000
     23 C           4.3223    0.2959   -0.3437 C.2     1  UNL1        0.0000
     24 C           4.9050    0.4600   -1.5499 C.2     1  UNL1        0.0000
     25 C           6.3421    0.6954   -1.5200 C.2     1  UNL1        0.0000
     26 C           6.8951    0.7175   -0.2936 C.2     1  UNL1        0.0000
     27 SI          5.5990    0.4338    1.0397 Si      1  UNL1        0.0000
     28 H          -4.5971   -2.0516    0.7097 H       1  UNL1        0.0000
     29 H          -4.5851   -0.8041    2.0222 H       1  UNL1        0.0000
     30 H          -6.8032   -0.5729    0.5736 H       1  UNL1        0.0000
     31 H          -6.1116    1.2467   -1.1623 H       1  UNL1        0.0000
     32 H          -3.0388   -2.4367    2.3118 H       1  UNL1        0.0000
     33 H           1.4533   -2.8336    2.6436 H       1  UNL1        0.0000
     34 H           2.9160   -1.5256    1.3769 H       1  UNL1        0.0000
     35 H          -0.0196    2.3604   -2.2698 H       1  UNL1        0.0000
     36 H          -4.5157    2.6647   -2.5235 H       1  UNL1        0.0000
     37 H           4.3827    0.4170   -2.4985 H       1  UNL1        0.0000
     38 H           6.9006    0.8382   -2.4373 H       1  UNL1        0.0000
     39 H           7.9339    0.8756   -0.0509 H       1  UNL1        0.0000
     40 H           5.4118    1.6311    1.8968 H       1  UNL1        0.0000
     41 H           5.8043   -0.8504    1.7578 H       1  UNL1        0.0000
@<TRIPOS>BOND
     1     1     2    1
     2     2     3    2
     3     3     4    1
     4     4     5   ar
     5     5     6   ar
     6     6     7   ar
     7     7     8   ar
     8     8     9   ar
     9     9    10   ar
    10    10    11   ar
    11    11    12   ar
    12    12    13   ar
    13    13    14   ar
    14    14    15   ar
    15    15    16   ar
    16    16    17   ar
    17    17    18   ar
    18    18    19   ar
    19    19    20   ar
    20    20    21   ar
    21    21    22   ar
    22    14    23    1
    23    23    24    2
    24    24    25    1
    25    25    26    2
    26    26    27    1
    27     5     1    1
    28    17     6   ar
    29    22    18   ar
    30    27    23    1
    31    22     4   ar
    32    11     7   ar
    33    16    12   ar
    34     1    28    1
    35     1    29    1
    36     2    30    1
    37     3    31    1
    38     8    32    1
    39    10    33    1
    40    13    34    1
    41    19    35    1
    42    21    36    1
    43    24    37    1
    44    25    38    1
    45    26    39    1
    46    27    40    1
    47    27    41    1
