@<TRIPOS>MOLECULE
*****
 42 48 0 0 0
SMALL
GASTEIGER

@<TRIPOS>ATOM
      1 C          -4.5917    1.8636   -0.0322 C.3     1  UNL1        0.0000
      2 C          -5.8620    1.0352    0.0446 C.2     1  UNL1        0.0000
      3 C          -5.6294   -0.2848    0.1241 C.2     1  UNL1        0.0000
      4 C          -4.1991   -0.4320    0.1063 C.ar    1  UNL1        0.0000
      5 C          -3.5248    0.7957    0.0154 C.ar    1  UNL1        0.0000
      6 C          -2.0890    0.9289   -0.0202 C.ar    1  UNL1        0.0000
      7 C          -1.4659    2.2312   -0.1148 C.ar    1  UNL1        0.0000
      8 N          -2.0941    3.4215   -0.1788 N.ar    1  UNL1        0.0000
      9 S          -0.9319    4.5936   -0.2751 S.2     1  UNL1        0.0000
     10 N           0.4389    3.6687   -0.2419 N.ar    1  UNL1        0.0000
     11 C           0.0387    2.3880   -0.1529 C.ar    1  UNL1        0.0000
     12 C           0.8698    1.2490   -0.0959 C.ar    1  UNL1        0.0000
     13 C           2.3375    1.3229   -0.1277 C.2     1  UNL1        0.0000
     14 C           2.9690    0.1301   -0.0633 C.2     1  UNL1        0.0000
     15 SI          1.6742   -1.2757    0.0494 Si      1  UNL1        0.0000
     16 C           0.2564   -0.0309   -0.0032 C.ar    1  UNL1        0.0000
     17 C          -1.1687   -0.2174    0.0354 C.ar    1  UNL1        0.0000
     18 C          -1.9268   -1.4418    0.1275 C.ar    1  UNL1        0.0000
     19 C          -1.4795   -2.7416    0.2016 C.ar    1  UNL1        0.0000
     20 N          -2.5802   -3.5759    0.2754 N.ar    1  UNL1        0.0000
     21 C          -3.7383   -2.8388    0.2505 C.ar    1  UNL1        0.0000
     22 C          -3.3633   -1.5242    0.1599 C.ar    1  UNL1        0.0000
     23 C           4.3932   -0.1376   -0.0724 C.2     1  UNL1        0.0000
     24 C           5.0473   -1.3214   -0.0033 C.2     1  UNL1        0.0000
     25 C           6.5020   -1.2696   -0.0352 C.2     1  UNL1        0.0000
     26 C           7.0378   -0.0416   -0.1305 C.2     1  UNL1        0.0000
     27 SI          5.7087    1.2734   -0.1957 Si      1  UNL1        0.0000
     28 H          -4.5279    2.5338    0.8298 H       1  UNL1        0.0000
     29 H          -4.5622    2.4192   -0.9739 H       1  UNL1        0.0000
     30 H          -6.8463    1.4820    0.0350 H       1  UNL1        0.0000
     31 H          -6.3475   -1.0841    0.1886 H       1  UNL1        0.0000
     32 H           2.8148    2.2923   -0.1978 H       1  UNL1        0.0000
     33 H           1.7524   -1.9992    1.3451 H       1  UNL1        0.0000
     34 H           1.7064   -2.1567   -1.1469 H       1  UNL1        0.0000
     35 H          -0.5020   -3.1954    0.2119 H       1  UNL1        0.0000
     36 H          -2.5367   -4.5851    0.3388 H       1  UNL1        0.0000
     37 H          -4.7058   -3.3195    0.2994 H       1  UNL1        0.0000
     38 H           4.5733   -2.2921    0.0733 H       1  UNL1        0.0000
     39 H           7.0896   -2.1784    0.0163 H       1  UNL1        0.0000
     40 H           8.0865    0.2071   -0.1681 H       1  UNL1        0.0000
     41 H           5.7128    2.1411    1.0088 H       1  UNL1        0.0000
     42 H           5.6638    1.9669   -1.5075 H       1  UNL1        0.0000
@<TRIPOS>BOND
     1     1     2    1
     2     2     3    2
     3     3     4    1
     4     4     5   ar
     5     5     6   ar
     6     6     7   ar
     7     7     8   ar
     8     8     9   ar
     9     9    10   ar
    10    10    11   ar
    11    11    12   ar
    12    12    13    1
    13    13    14    2
    14    14    15    1
    15    15    16    1
    16    16    17   ar
    17    17    18   ar
    18    18    19   ar
    19    19    20   ar
    20    20    21   ar
    21    21    22   ar
    22    14    23    1
    23    23    24    2
    24    24    25    1
    25    25    26    2
    26    26    27    1
    27     5     1    1
    28    17     6   ar
    29    22    18   ar
    30    27    23    1
    31    22     4   ar
    32    11     7   ar
    33    16    12   ar
    34     1    28    1
    35     1    29    1
    36     2    30    1
    37     3    31    1
    38    13    32    1
    39    15    33    1
    40    15    34    1
    41    19    35    1
    42    20    36    1
    43    21    37    1
    44    24    38    1
    45    25    39    1
    46    26    40    1
    47    27    41    1
    48    27    42    1
