@<TRIPOS>MOLECULE
*****
 48 55 0 0 0
SMALL
GASTEIGER

@<TRIPOS>ATOM
      1 C          -5.5107    1.2682    1.1170 C.3     1  UNL1       -0.0079
      2 C          -6.8203    0.5256    0.9191 C.2     1  UNL1       -0.0791
      3 C          -6.6760   -0.6413    0.2710 C.2     1  UNL1       -0.0572
      4 C          -5.2714   -0.7580   -0.0079 C.ar    1  UNL1       -0.0105
      5 C          -4.5239    0.3296    0.4611 C.ar    1  UNL1       -0.0260
      6 C          -3.0915    0.4528    0.3086 C.ar    1  UNL1        0.0157
      7 C          -2.4002    1.6002    0.8280 C.ar    1  UNL1        0.1085
      8 N          -2.9558    2.6388    1.4812 N.ar    1  UNL1       -0.1901
      9 S          -1.7456    3.6905    1.8737 S.2     1  UNL1        0.1165
     10 N          -0.4472    2.8917    1.2400 N.ar    1  UNL1       -0.1901
     11 C          -0.9111    1.7559    0.6847 C.ar    1  UNL1        0.1083
     12 C          -0.1169    0.7715    0.0187 C.ar    1  UNL1        0.0144
     13 C           1.2771    0.9578   -0.0997 C.ar    1  UNL1       -0.0258
     14 C           2.0312   -0.0049   -0.7461 C.ar    1  UNL1        0.0722
     15 N           1.4553   -1.0955   -1.2894 N.ar    1  UNL1       -0.2543
     16 C           0.1088   -1.2435   -1.1557 C.ar    1  UNL1        0.0366
     17 C          -0.7775   -0.3678   -0.5075 C.ar    1  UNL1        0.0108
     18 C          -2.2364   -0.5410   -0.3615 C.ar    1  UNL1        0.0045
     19 C          -3.0789   -1.6318   -0.8044 C.ar    1  UNL1        0.0288
     20 C          -2.7551   -2.8038   -1.4493 C.ar    1  UNL1        0.1000
     21 O          -3.8716   -3.5618   -1.6803 O.2     1  UNL1       -0.4698
     22 C          -4.9402   -2.8872   -1.1753 C.ar    1  UNL1        0.1000
     23 C          -4.5064   -1.7127   -0.6288 C.ar    1  UNL1        0.0279
     24 C           3.4857    0.1207   -0.9313 C.ar    1  UNL1        0.0081
     25 C           3.9725    0.2306   -2.2494 C.ar    1  UNL1       -0.0520
     26 C           5.3283    0.3998   -2.5080 C.ar    1  UNL1       -0.0605
     27 C           6.2286    0.4588   -1.4500 C.ar    1  UNL1       -0.0540
     28 C           5.7912    0.3331   -0.1238 C.ar    1  UNL1       -0.0173
     29 C           6.7245    0.3805    0.9254 C.ar    1  UNL1       -0.0540
     30 C           6.3236    0.2387    2.2523 C.ar    1  UNL1       -0.0612
     31 C           4.9826    0.0398    2.5473 C.ar    1  UNL1       -0.0611
     32 C           4.0420   -0.0072    1.5153 C.ar    1  UNL1       -0.0534
     33 C           4.4111    0.1509    0.1562 C.ar    1  UNL1       -0.0087
     34 H          -5.3048    1.3862    2.1847 H       1  UNL1        0.0356
     35 H          -5.5464    2.2347    0.6062 H       1  UNL1        0.0356
     36 H          -7.7651    0.9145    1.2732 H       1  UNL1        0.0575
     37 H          -7.4412   -1.3517    0.0079 H       1  UNL1        0.0621
     38 H           1.7597    1.8447    0.3034 H       1  UNL1        0.0646
     39 H          -0.2268   -2.1506   -1.6356 H       1  UNL1        0.0836
     40 H          -1.8558   -3.2750   -1.8105 H       1  UNL1        0.1036
     41 H          -5.8987   -3.3745   -1.2840 H       1  UNL1        0.1036
     42 H           3.2759    0.1867   -3.0856 H       1  UNL1        0.0624
     43 H           5.6812    0.4859   -3.5321 H       1  UNL1        0.0618
     44 H           7.2854    0.5938   -1.6712 H       1  UNL1        0.0624
     45 H           7.7822    0.5241    0.7140 H       1  UNL1        0.0624
     46 H           7.0597    0.2745    3.0507 H       1  UNL1        0.0618
     47 H           4.6632   -0.0854    3.5786 H       1  UNL1        0.0618
     48 H           3.0054   -0.1868    1.7911 H       1  UNL1        0.0624
@<TRIPOS>BOND
     1     1     2    1
     2     2     3    2
     3     3     4    1
     4     4     5   ar
     5     5     6   ar
     6     6     7   ar
     7     7     8   ar
     8     8     9   ar
     9     9    10   ar
    10    10    11   ar
    11    11    12   ar
    12    12    13   ar
    13    13    14   ar
    14    14    15   ar
    15    15    16   ar
    16    16    17   ar
    17    17    18   ar
    18    18    19   ar
    19    19    20   ar
    20    20    21   ar
    21    21    22   ar
    22    22    23   ar
    23    14    24    1
    24    24    25   ar
    25    25    26   ar
    26    26    27   ar
    27    27    28   ar
    28    28    29   ar
    29    29    30   ar
    30    30    31   ar
    31    31    32   ar
    32    32    33   ar
    33     5     1    1
    34    18     6   ar
    35    23    19   ar
    36    33    24   ar
    37    23     4   ar
    38    33    28   ar
    39    11     7   ar
    40    17    12   ar
    41     1    34    1
    42     1    35    1
    43     2    36    1
    44     3    37    1
    45    13    38    1
    46    16    39    1
    47    20    40    1
    48    22    41    1
    49    25    42    1
    50    26    43    1
    51    27    44    1
    52    29    45    1
    53    30    46    1
    54    31    47    1
    55    32    48    1
