@<TRIPOS>MOLECULE
*****
 41 47 0 0 0
SMALL
GASTEIGER

@<TRIPOS>ATOM
      1 C           5.0423   -1.3989   -0.8030 C.3     1  UNL1       -0.0083
      2 C           6.3492   -0.8171   -0.3016 C.2     1  UNL1       -0.0790
      3 C           6.1901    0.2975    0.4325 C.2     1  UNL1       -0.0558
      4 C           4.7676    0.5594    0.4873 C.ar    1  UNL1        0.0066
      5 C           4.0539   -0.4257   -0.2340 C.ar    1  UNL1       -0.0302
      6 C           2.6688   -0.3970   -0.3325 C.ar    1  UNL1       -0.0277
      7 C           1.7524   -1.3893   -1.0771 C.3     1  UNL1        0.0006
      8 C           0.4413   -0.7369   -0.7489 C.ar    1  UNL1       -0.0171
      9 C          -0.9306   -0.9141   -0.9857 C.ar    1  UNL1       -0.0323
     10 C          -1.6006    0.1302   -0.3406 C.ar    1  UNL1        0.0478
     11 N          -0.6424    0.9290    0.2733 N.ar    1  UNL1       -0.3539
     12 C           0.5658    0.3906    0.0166 C.ar    1  UNL1        0.0529
     13 C           1.9269    0.6465    0.3044 C.ar    1  UNL1        0.0305
     14 C           2.5643    1.6641    1.0398 C.ar    1  UNL1        0.1098
     15 N           2.0203    2.7055    1.6896 N.ar    1  UNL1       -0.1901
     16 S           3.2952    3.5420    2.3604 S.2     1  UNL1        0.1165
     17 N           4.5942    2.6292    1.8594 N.ar    1  UNL1       -0.1902
     18 C           4.0853    1.6176    1.1383 C.ar    1  UNL1        0.1079
     19 C          -3.0152    0.4406   -0.2662 C.ar    1  UNL1        0.0074
     20 C          -3.5650    1.7282   -0.4902 C.ar    1  UNL1       -0.0520
     21 C          -4.9719    2.0286   -0.4195 C.ar    1  UNL1       -0.0605
     22 C          -5.9740    1.0791   -0.1142 C.ar    1  UNL1       -0.0526
     23 C          -5.4114   -0.1712    0.1066 C.ar    1  UNL1        0.0000
     24 C          -6.0970   -1.3105    0.4392 C.ar    1  UNL1        0.0094
     25 N          -5.1596   -2.3110    0.5857 N.ar    1  UNL1       -0.3659
     26 C          -3.8922   -1.8186    0.3525 C.ar    1  UNL1        0.0100
     27 C          -4.0188   -0.4869    0.0365 C.ar    1  UNL1        0.0085
     28 H           5.0127   -1.4037   -1.8962 H       1  UNL1        0.0356
     29 H           4.8860   -2.4050   -0.4039 H       1  UNL1        0.0356
     30 H           7.3081   -1.2663   -0.5216 H       1  UNL1        0.0575
     31 H           6.9495    0.9018    0.9023 H       1  UNL1        0.0621
     32 H           1.9558   -1.3798   -2.1506 H       1  UNL1        0.0362
     33 H           1.8289   -2.3909   -0.6470 H       1  UNL1        0.0362
     34 H          -1.4043   -1.6965   -1.5641 H       1  UNL1        0.0642
     35 H          -0.8280    1.7541    0.8292 H       1  UNL1        0.1659
     36 H          -2.8933    2.5462   -0.7514 H       1  UNL1        0.0624
     37 H          -5.2811    3.0554   -0.6184 H       1  UNL1        0.0618
     38 H          -7.0264    1.3164   -0.0616 H       1  UNL1        0.0624
     39 H          -7.1483   -1.5108    0.5934 H       1  UNL1        0.0813
     40 H          -5.3688   -3.2675    0.8397 H       1  UNL1        0.1648
     41 H          -3.0297   -2.4644    0.4418 H       1  UNL1        0.0813
@<TRIPOS>BOND
     1     1     2    1
     2     2     3    2
     3     3     4    1
     4     4     5   ar
     5     5     6   ar
     6     6     7    1
     7     7     8    1
     8     8     9   ar
     9     9    10   ar
    10    10    11   ar
    11    11    12   ar
    12    12    13    1
    13    13    14   ar
    14    14    15   ar
    15    15    16   ar
    16    16    17   ar
    17    17    18   ar
    18    10    19    1
    19    19    20   ar
    20    20    21   ar
    21    21    22   ar
    22    22    23   ar
    23    23    24   ar
    24    24    25   ar
    25    25    26   ar
    26    26    27   ar
    27     5     1    1
    28    13     6   ar
    29    18    14   ar
    30    27    19   ar
    31    18     4   ar
    32    27    23   ar
    33    12     8   ar
    34     1    28    1
    35     1    29    1
    36     2    30    1
    37     3    31    1
    38     7    32    1
    39     7    33    1
    40     9    34    1
    41    11    35    1
    42    20    36    1
    43    21    37    1
    44    22    38    1
    45    24    39    1
    46    25    40    1
    47    26    41    1
