@<TRIPOS>MOLECULE
*****
 45 51 0 0 0
SMALL
GASTEIGER

@<TRIPOS>ATOM
      1 C          -3.8529    1.6468   -2.2525 C.3     1  UNL1        0.0000
      2 C          -5.3352    1.8696   -2.1450 C.2     1  UNL1        0.0000
      3 C          -5.7960    1.3152   -1.0139 C.2     1  UNL1        0.0000
      4 C          -4.7038    0.6973   -0.2943 C.ar    1  UNL1        0.0000
      5 C          -3.5646    0.8781   -0.9964 C.ar    1  UNL1        0.0000
      6 C          -2.2470    0.3770   -0.5585 C.ar    1  UNL1        0.0000
      7 C          -1.1057    0.6041   -1.3425 C.ar    1  UNL1        0.0000
      8 C           0.1419    0.1170   -0.9051 C.ar    1  UNL1        0.0000
      9 S           1.6554    0.2825   -1.7111 S.2     1  UNL1        0.0000
     10 C           2.4939   -0.5571   -0.4855 C.ar    1  UNL1        0.0000
     11 C           1.6405   -0.9771    0.5112 C.ar    1  UNL1        0.0000
     12 C           0.2768   -0.5884    0.2894 C.ar    1  UNL1        0.0000
     13 C          -0.8816   -0.8128    1.0725 C.ar    1  UNL1        0.0000
     14 C          -2.1374   -0.3369    0.6596 C.ar    1  UNL1        0.0000
     15 C          -3.3742   -0.5547    1.4597 C.ar    1  UNL1        0.0000
     16 C          -3.4656   -1.2071    2.6383 C.2     1  UNL1        0.0000
     17 SI         -5.2288   -1.2277    3.2687 Si      1  UNL1        0.0000
     18 C          -5.7294   -0.2685    1.7504 C.2     1  UNL1        0.0000
     19 C          -4.6671   -0.0220    0.9585 C.ar    1  UNL1        0.0000
     20 C           3.9198   -0.7788   -0.6022 C.ar    1  UNL1        0.0000
     21 C           4.5128   -2.0373   -0.8695 C.ar    1  UNL1        0.0000
     22 C           5.9338   -2.2504   -0.9658 C.ar    1  UNL1        0.0000
     23 C           6.9049   -1.2351   -0.7971 C.ar    1  UNL1        0.0000
     24 C           6.2975   -0.0159   -0.5246 C.ar    1  UNL1        0.0000
     25 C           6.9427    1.1713   -0.2949 C.ar    1  UNL1        0.0000
     26 N           5.9668    2.1166   -0.0561 N.ar    1  UNL1        0.0000
     27 C           4.7143    1.5418   -0.1276 C.ar    1  UNL1        0.0000
     28 C           4.8909    0.2129   -0.4293 C.ar    1  UNL1        0.0000
     29 H          -3.3208    2.6029   -2.2749 H       1  UNL1        0.0000
     30 H          -3.6153    1.0650   -3.1485 H       1  UNL1        0.0000
     31 H          -5.9297    2.3977   -2.8747 H       1  UNL1        0.0000
     32 H          -6.8205    1.3191   -0.6760 H       1  UNL1        0.0000
     33 H          -1.1643    1.1476   -2.2804 H       1  UNL1        0.0000
     34 H           1.9767   -1.5356    1.3766 H       1  UNL1        0.0000
     35 H          -0.7747   -1.3625    2.0022 H       1  UNL1        0.0000
     36 H          -2.6819   -1.6798    3.2056 H       1  UNL1        0.0000
     37 H          -5.3890   -0.4446    4.5177 H       1  UNL1        0.0000
     38 H          -5.8012   -2.5953    3.2951 H       1  UNL1        0.0000
     39 H          -6.7533    0.0233    1.5821 H       1  UNL1        0.0000
     40 H           3.8617   -2.8990   -1.0198 H       1  UNL1        0.0000
     41 H           6.2806   -3.2614   -1.1828 H       1  UNL1        0.0000
     42 H           7.9687   -1.4081   -0.8698 H       1  UNL1        0.0000
     43 H           7.9897    1.4407   -0.2737 H       1  UNL1        0.0000
     44 H           6.1430    3.0917    0.1473 H       1  UNL1        0.0000
     45 H           3.8274    2.1377    0.0407 H       1  UNL1        0.0000
@<TRIPOS>BOND
     1     1     2    1
     2     2     3    2
     3     3     4    1
     4     4     5   ar
     5     5     6   ar
     6     6     7   ar
     7     7     8   ar
     8     8     9   ar
     9     9    10   ar
    10    10    11   ar
    11    11    12   ar
    12    12    13   ar
    13    13    14   ar
    14    14    15   ar
    15    15    16    2
    16    16    17    1
    17    17    18    1
    18    18    19    2
    19    10    20    1
    20    20    21   ar
    21    21    22   ar
    22    22    23   ar
    23    23    24   ar
    24    24    25   ar
    25    25    26   ar
    26    26    27   ar
    27    27    28   ar
    28     5     1    1
    29    14     6   ar
    30    19    15   ar
    31    28    20   ar
    32    19     4   ar
    33    28    24   ar
    34    12     8   ar
    35     1    29    1
    36     1    30    1
    37     2    31    1
    38     3    32    1
    39     7    33    1
    40    11    34    1
    41    13    35    1
    42    16    36    1
    43    17    37    1
    44    17    38    1
    45    18    39    1
    46    21    40    1
    47    22    41    1
    48    23    42    1
    49    25    43    1
    50    26    44    1
    51    27    45    1
