@<TRIPOS>MOLECULE
*****
 48 55 0 0 0
SMALL
GASTEIGER

@<TRIPOS>ATOM
      1 SI          1.7499   -2.7862   -2.4527 Si      1  UNL1        0.0000
      2 C           2.0462   -0.9499   -2.5022 C.2     1  UNL1        0.0000
      3 C           1.3926   -0.3137   -1.5068 C.ar    1  UNL1        0.0000
      4 C           1.5595    1.1120   -1.1846 C.ar    1  UNL1        0.0000
      5 C           1.0075    1.5873   -0.0456 C.ar    1  UNL1        0.0000
      6 C           0.1940    0.7165    0.7471 C.ar    1  UNL1        0.0000
      7 S          -0.4366    1.2243    2.2472 S.2     1  UNL1        0.0000
      8 C          -1.3593   -0.2327    2.4683 C.ar    1  UNL1        0.0000
      9 C          -1.1793   -1.0290    1.3368 C.ar    1  UNL1        0.0000
     10 C          -2.0549   -2.1749    1.2324 C.ar    1  UNL1        0.0000
     11 C          -2.2753   -2.9281    0.1141 C.ar    1  UNL1        0.0000
     12 S          -3.3882   -4.1893    0.4624 S.2     1  UNL1        0.0000
     13 C          -3.6266   -3.6181    2.0688 C.ar    1  UNL1        0.0000
     14 C          -2.8781   -2.4910    2.3466 C.ar    1  UNL1        0.0000
     15 C          -2.9864   -1.7820    3.5680 C.ar    1  UNL1        0.0000
     16 C          -3.7953   -2.1166    4.6838 C.ar    1  UNL1        0.0000
     17 C          -3.8329   -1.2838    5.8006 C.ar    1  UNL1        0.0000
     18 C          -3.0798   -0.1134    5.8220 C.ar    1  UNL1        0.0000
     19 C          -2.2773    0.2320    4.7300 C.ar    1  UNL1        0.0000
     20 C          -2.2059   -0.5935    3.5850 C.ar    1  UNL1        0.0000
     21 C          -0.1558   -0.5975    0.4497 C.ar    1  UNL1        0.0000
     22 C           0.5485   -1.2073   -0.6518 C.ar    1  UNL1        0.0000
     23 C           0.6935   -2.5164   -0.9380 C.2     1  UNL1        0.0000
     24 C           2.3457    2.0528   -1.9802 C.ar    1  UNL1        0.0000
     25 C           3.6260    2.5582   -1.6405 C.ar    1  UNL1        0.0000
     26 C           4.3737    3.4772   -2.4626 C.ar    1  UNL1        0.0000
     27 C           3.9247    3.9848   -3.7057 C.ar    1  UNL1        0.0000
     28 C           2.6718    3.4709   -4.0122 C.ar    1  UNL1        0.0000
     29 C           1.9214    3.7314   -5.1269 C.ar    1  UNL1        0.0000
     30 O           0.7451    3.0339   -5.0572 O.2     1  UNL1        0.0000
     31 C           0.7521    2.3261   -3.8847 C.ar    1  UNL1        0.0000
     32 C           1.9219    2.5622   -3.2093 C.ar    1  UNL1        0.0000
     33 H           0.9555   -3.2674   -3.6079 H       1  UNL1        0.0000
     34 H           2.9813   -3.5548   -2.1523 H       1  UNL1        0.0000
     35 H           2.7341   -0.5202   -3.2138 H       1  UNL1        0.0000
     36 H           1.1295    2.6239    0.2569 H       1  UNL1        0.0000
     37 H          -1.8925   -2.8257   -0.8889 H       1  UNL1        0.0000
     38 H          -4.3369   -4.1386    2.6947 H       1  UNL1        0.0000
     39 H          -4.3994   -3.0187    4.6871 H       1  UNL1        0.0000
     40 H          -4.4547   -1.5452    6.6531 H       1  UNL1        0.0000
     41 H          -3.1134    0.5368    6.6929 H       1  UNL1        0.0000
     42 H          -1.7028    1.1529    4.7950 H       1  UNL1        0.0000
     43 H           0.3070   -3.3614   -0.3937 H       1  UNL1        0.0000
     44 H           4.0826    2.2320   -0.7048 H       1  UNL1        0.0000
     45 H           5.3511    3.7990   -2.0994 H       1  UNL1        0.0000
     46 H           4.4952    4.6734   -4.3122 H       1  UNL1        0.0000
     47 H           2.0488    4.3411   -6.0099 H       1  UNL1        0.0000
     48 H          -0.1278    1.7262   -3.6985 H       1  UNL1        0.0000
@<TRIPOS>BOND
     1     1     2    1
     2     2     3    2
     3     3     4   ar
     4     4     5   ar
     5     5     6   ar
     6     6     7   ar
     7     7     8   ar
     8     8     9   ar
     9     9    10   ar
    10    10    11   ar
    11    11    12   ar
    12    12    13   ar
    13    13    14   ar
    14    14    15   ar
    15    15    16   ar
    16    16    17   ar
    17    17    18   ar
    18    18    19   ar
    19    19    20   ar
    20     9    21   ar
    21    21    22   ar
    22    22    23    2
    23     4    24    1
    24    24    25   ar
    25    25    26   ar
    26    26    27   ar
    27    27    28   ar
    28    28    29   ar
    29    29    30   ar
    30    30    31   ar
    31    31    32   ar
    32    23     1    1
    33    32    24   ar
    34    22     3   ar
    35    32    28   ar
    36    21     6   ar
    37    20     8   ar
    38    14    10   ar
    39    20    15   ar
    40     1    33    1
    41     1    34    1
    42     2    35    1
    43     5    36    1
    44    11    37    1
    45    13    38    1
    46    16    39    1
    47    17    40    1
    48    18    41    1
    49    19    42    1
    50    23    43    1
    51    25    44    1
    52    26    45    1
    53    27    46    1
    54    29    47    1
    55    31    48    1
