@<TRIPOS>MOLECULE
*****
 43 49 0 0 0
SMALL
GASTEIGER

@<TRIPOS>ATOM
      1 C          -5.0232   -1.8420    0.5185 C.3     1  UNL1        0.0000
      2 C          -6.2914   -1.0160    0.6358 C.2     1  UNL1        0.0000
      3 C          -6.0802    0.3059    0.5219 C.2     1  UNL1        0.0000
      4 C          -4.6654    0.4602    0.3216 C.ar    1  UNL1        0.0000
      5 C          -3.9767   -0.7729    0.3088 C.ar    1  UNL1        0.0000
      6 C          -2.5609   -0.9285    0.1283 C.ar    1  UNL1        0.0000
      7 C          -1.9596   -2.2076    0.1292 C.ar    1  UNL1        0.0000
      8 C          -0.5800   -2.3834   -0.0453 C.ar    1  UNL1        0.0000
      9 C           0.2172   -1.2677   -0.2230 C.ar    1  UNL1        0.0000
     10 C           1.6551   -1.1957   -0.4190 C.2     1  UNL1        0.0000
     11 C           2.0066    0.0998   -0.5393 C.2     1  UNL1        0.0000
     12 C           0.7845    1.0074   -0.4510 C.3     1  UNL1        0.0000
     13 C          -0.3216    0.0210   -0.2339 C.ar    1  UNL1        0.0000
     14 C          -1.7020    0.2206   -0.0615 C.ar    1  UNL1        0.0000
     15 C          -2.4314    1.4487   -0.0438 C.ar    1  UNL1        0.0000
     16 C          -1.9832    2.7368   -0.1892 C.ar    1  UNL1        0.0000
     17 O          -3.0348    3.6117   -0.1043 O.2     1  UNL1        0.0000
     18 C          -4.1713    2.8768    0.0971 C.ar    1  UNL1        0.0000
     19 C          -3.8458    1.5503    0.1401 C.ar    1  UNL1        0.0000
     20 C           3.3641    0.4807   -0.7444 C.ar    1  UNL1        0.0000
     21 S           3.7322    1.7744   -1.8546 S.2     1  UNL1        0.0000
     22 C           5.4327    1.6615   -1.5997 C.ar    1  UNL1        0.0000
     23 C           5.7184    0.6888   -0.6833 C.ar    1  UNL1        0.0000
     24 C           6.9749    0.2616   -0.1479 C.2     1  UNL1        0.0000
     25 C           6.8946   -0.7225    0.7737 C.2     1  UNL1        0.0000
     26 SI          5.0794   -1.2407    1.0765 Si      1  UNL1        0.0000
     27 C           4.5454    0.0375   -0.2112 C.ar    1  UNL1        0.0000
     28 H          -4.8409   -2.3999    1.4415 H       1  UNL1        0.0000
     29 H          -5.0808   -2.5149   -0.3419 H       1  UNL1        0.0000
     30 H          -7.2623   -1.4646    0.7952 H       1  UNL1        0.0000
     31 H          -6.8059    1.1001    0.5680 H       1  UNL1        0.0000
     32 H          -2.5700   -3.0980    0.2674 H       1  UNL1        0.0000
     33 H          -0.1516   -3.3808   -0.0404 H       1  UNL1        0.0000
     34 H           2.2876   -2.0669   -0.4746 H       1  UNL1        0.0000
     35 H           0.6352    1.5581   -1.3847 H       1  UNL1        0.0000
     36 H           0.8772    1.6909    0.3987 H       1  UNL1        0.0000
     37 H          -1.0222    3.2022   -0.3503 H       1  UNL1        0.0000
     38 H          -5.0864    3.4448    0.1831 H       1  UNL1        0.0000
     39 H           6.1080    2.3200   -2.1273 H       1  UNL1        0.0000
     40 H           7.9133    0.7026   -0.4640 H       1  UNL1        0.0000
     41 H           7.7035   -1.1952    1.3067 H       1  UNL1        0.0000
     42 H           4.8511   -2.6470    0.6571 H       1  UNL1        0.0000
     43 H           4.6667   -0.9183    2.4652 H       1  UNL1        0.0000
@<TRIPOS>BOND
     1     1     2    1
     2     2     3    2
     3     3     4    1
     4     4     5   ar
     5     5     6   ar
     6     6     7   ar
     7     7     8   ar
     8     8     9   ar
     9     9    10    1
    10    10    11    2
    11    11    12    1
    12    12    13    1
    13    13    14   ar
    14    14    15   ar
    15    15    16   ar
    16    16    17   ar
    17    17    18   ar
    18    18    19   ar
    19    11    20    1
    20    20    21   ar
    21    21    22   ar
    22    22    23   ar
    23    23    24    1
    24    24    25    2
    25    25    26    1
    26    26    27    1
    27     5     1    1
    28    14     6   ar
    29    19    15   ar
    30    27    20   ar
    31    19     4   ar
    32    27    23   ar
    33    13     9   ar
    34     1    28    1
    35     1    29    1
    36     2    30    1
    37     3    31    1
    38     7    32    1
    39     8    33    1
    40    10    34    1
    41    12    35    1
    42    12    36    1
    43    16    37    1
    44    18    38    1
    45    22    39    1
    46    24    40    1
    47    25    41    1
    48    26    42    1
    49    26    43    1
