@<TRIPOS>MOLECULE
*****
 47 54 0 0 0
SMALL
GASTEIGER

@<TRIPOS>ATOM
      1 C          -4.8575    2.2072    0.4955 C.3     1  UNL1        0.0000
      2 C          -6.1808    1.5477    0.2259 C.2     1  UNL1        0.0000
      3 C          -5.9908    0.2505   -0.0572 C.2     1  UNL1        0.0000
      4 C          -4.5784   -0.0553   -0.0078 C.ar    1  UNL1        0.0000
      5 C          -3.9002    1.0662    0.3101 C.ar    1  UNL1        0.0000
      6 C          -2.4287    1.1300    0.4032 C.ar    1  UNL1        0.0000
      7 C          -1.8071    2.3001    0.8421 C.ar    1  UNL1        0.0000
      8 C          -0.4161    2.3999    0.8727 C.ar    1  UNL1        0.0000
      9 C           0.4052    1.3945    0.3562 C.ar    1  UNL1        0.0000
     10 C           1.8219    1.6250    0.3784 C.ar    1  UNL1        0.0000
     11 C           2.7920    0.7715   -0.1859 C.ar    1  UNL1        0.0000
     12 C           4.2182    1.0174   -0.1258 C.ar    1  UNL1        0.0000
     13 S           4.9008    2.4806   -0.7888 S.2     1  UNL1        0.0000
     14 C           6.5276    2.0532   -0.3629 C.ar    1  UNL1        0.0000
     15 C           6.4847    0.8574    0.2508 C.ar    1  UNL1        0.0000
     16 O           7.5438    0.1637    0.7483 O.2     1  UNL1        0.0000
     17 C           6.8812   -0.9454    1.2441 C.ar    1  UNL1        0.0000
     18 C           5.4934   -0.9190    1.0527 C.ar    1  UNL1        0.0000
     19 C           5.2411    0.2920    0.3836 C.ar    1  UNL1        0.0000
     20 C           2.2061   -0.3075   -0.8569 C.ar    1  UNL1        0.0000
     21 C           2.9165   -1.2055   -1.6230 C.ar    1  UNL1        0.0000
     22 S           1.8854   -2.3017   -2.4387 S.2     1  UNL1        0.0000
     23 C           0.4835   -1.5572   -1.7915 C.ar    1  UNL1        0.0000
     24 C           0.7771   -0.5727   -0.8734 C.ar    1  UNL1        0.0000
     25 C          -0.2155    0.2101   -0.1806 C.ar    1  UNL1        0.0000
     26 C          -1.6329    0.0185    0.0003 C.ar    1  UNL1        0.0000
     27 C          -2.3673   -1.2832   -0.1222 C.ar    1  UNL1        0.0000
     28 C          -1.8429   -2.5218    0.0020 C.2     1  UNL1        0.0000
     29 SI         -3.1406   -3.8552   -0.1871 Si      1  UNL1        0.0000
     30 C          -4.4236   -2.5086   -0.2708 C.2     1  UNL1        0.0000
     31 C          -3.8539   -1.2899   -0.1853 C.ar    1  UNL1        0.0000
     32 H          -4.8272    2.6021    1.5158 H       1  UNL1        0.0000
     33 H          -4.6740    3.0120   -0.2231 H       1  UNL1        0.0000
     34 H          -7.1349    2.0510    0.2607 H       1  UNL1        0.0000
     35 H          -6.7605   -0.4692   -0.2883 H       1  UNL1        0.0000
     36 H          -2.3917    3.1482    1.1891 H       1  UNL1        0.0000
     37 H           0.0178    3.3194    1.2643 H       1  UNL1        0.0000
     38 H           2.1848    2.5336    0.8650 H       1  UNL1        0.0000
     39 H           7.3861    2.6734   -0.5739 H       1  UNL1        0.0000
     40 H           7.5341   -1.6723    1.7096 H       1  UNL1        0.0000
     41 H           4.7918   -1.6797    1.3642 H       1  UNL1        0.0000
     42 H           3.9821   -1.2644   -1.7964 H       1  UNL1        0.0000
     43 H          -0.4790   -1.8963   -2.1439 H       1  UNL1        0.0000
     44 H          -0.8189   -2.7949    0.1960 H       1  UNL1        0.0000
     45 H          -3.0042   -4.5925   -1.4663 H       1  UNL1        0.0000
     46 H          -3.2719   -4.6945    1.0281 H       1  UNL1        0.0000
     47 H          -5.4768   -2.7385   -0.2756 H       1  UNL1        0.0000
@<TRIPOS>BOND
     1     1     2    1
     2     2     3    2
     3     3     4    1
     4     4     5   ar
     5     5     6   ar
     6     6     7   ar
     7     7     8   ar
     8     8     9   ar
     9     9    10   ar
    10    10    11   ar
    11    11    12    1
    12    12    13   ar
    13    13    14   ar
    14    14    15   ar
    15    15    16   ar
    16    16    17   ar
    17    17    18   ar
    18    18    19   ar
    19    11    20   ar
    20    20    21   ar
    21    21    22   ar
    22    22    23   ar
    23    23    24   ar
    24    24    25   ar
    25    25    26   ar
    26    26    27   ar
    27    27    28    2
    28    28    29    1
    29    29    30    1
    30    30    31    2
    31     5     1    1
    32    26     6   ar
    33    31    27   ar
    34    31     4   ar
    35    25     9   ar
    36    19    12   ar
    37    24    20   ar
    38    19    15   ar
    39     1    32    1
    40     1    33    1
    41     2    34    1
    42     3    35    1
    43     7    36    1
    44     8    37    1
    45    10    38    1
    46    14    39    1
    47    17    40    1
    48    18    41    1
    49    21    42    1
    50    23    43    1
    51    28    44    1
    52    29    45    1
    53    29    46    1
    54    30    47    1
