@<TRIPOS>MOLECULE
*****
 42 47 0 0 0
SMALL
GASTEIGER

@<TRIPOS>ATOM
      1 C          -3.9093    2.3818   -0.0689 C.3     1  UNL1       -0.0080
      2 C          -5.2570    1.7524    0.1348 C.2     1  UNL1       -0.0791
      3 C          -5.1820    0.4191    0.2437 C.2     1  UNL1       -0.0573
      4 C          -3.7787    0.0238    0.1246 C.ar    1  UNL1       -0.0135
      5 C          -3.0063    1.1766   -0.0515 C.ar    1  UNL1       -0.0282
      6 C          -1.6173    1.1306   -0.1654 C.ar    1  UNL1       -0.0127
      7 C          -0.9076    2.3186   -0.3864 C.ar    1  UNL1       -0.0531
      8 C           0.4764    2.3269   -0.4638 C.ar    1  UNL1       -0.0534
      9 C           1.1992    1.1663   -0.2186 C.ar    1  UNL1       -0.0167
     10 C           2.6058    1.2446   -0.2042 C.ar    1  UNL1       -0.0458
     11 C           3.4011    0.1481    0.1365 C.ar    1  UNL1       -0.0107
     12 C           2.7556   -1.0265    0.5061 C.ar    1  UNL1       -0.0529
     13 C           1.3556   -1.1108    0.4765 C.ar    1  UNL1       -0.0528
     14 C           0.5171   -0.0504    0.0487 C.ar    1  UNL1       -0.0096
     15 C          -0.9439   -0.1182   -0.0531 C.ar    1  UNL1       -0.0022
     16 C          -1.7842   -1.3299   -0.0483 C.ar    1  UNL1       -0.0090
     17 C          -1.2922   -2.6444   -0.2642 C.ar    1  UNL1       -0.0534
     18 C          -2.0887   -3.7933   -0.1961 C.ar    1  UNL1       -0.0611
     19 C          -3.4403   -3.6759    0.0604 C.ar    1  UNL1       -0.0611
     20 C          -3.9931   -2.4080    0.1919 C.ar    1  UNL1       -0.0534
     21 C          -3.1986   -1.2411    0.1049 C.ar    1  UNL1       -0.0099
     22 C           4.8639    0.2687    0.1604 C.ar    1  UNL1        0.0193
     23 C           5.6390    1.2954    0.6706 C.ar    1  UNL1       -0.0469
     24 C           7.0359    1.0713    0.4965 C.ar    1  UNL1       -0.0541
     25 C           7.2881   -0.1172   -0.1489 C.ar    1  UNL1       -0.0237
     26 S           5.8495   -0.9522   -0.5400 S.2     1  UNL1       -0.0967
     27 H          -3.6764    3.0666    0.7520 H       1  UNL1        0.0356
     28 H          -3.8675    2.8990   -1.0321 H       1  UNL1        0.0356
     29 H          -6.1747    2.3210    0.1842 H       1  UNL1        0.0575
     30 H          -6.0088   -0.2557    0.3916 H       1  UNL1        0.0621
     31 H          -1.4263    3.2658   -0.5162 H       1  UNL1        0.0624
     32 H           0.9816    3.2703   -0.6598 H       1  UNL1        0.0624
     33 H           3.0904    2.1871   -0.4554 H       1  UNL1        0.0630
     34 H           3.3236   -1.8883    0.8496 H       1  UNL1        0.0624
     35 H           0.9295   -2.0281    0.8711 H       1  UNL1        0.0624
     36 H          -0.2613   -2.8043   -0.5651 H       1  UNL1        0.0624
     37 H          -1.6455   -4.7715   -0.3633 H       1  UNL1        0.0618
     38 H          -4.0705   -4.5586    0.1168 H       1  UNL1        0.0618
     39 H          -5.0678   -2.3380    0.3400 H       1  UNL1        0.0624
     40 H           5.2227    2.1684    1.1588 H       1  UNL1        0.0629
     41 H           7.8141    1.7477    0.8279 H       1  UNL1        0.0623
     42 H           8.2488   -0.5377   -0.4126 H       1  UNL1        0.0693
@<TRIPOS>BOND
     1     1     2    1
     2     2     3    2
     3     3     4    1
     4     4     5   ar
     5     5     6   ar
     6     6     7   ar
     7     7     8   ar
     8     8     9   ar
     9     9    10   ar
    10    10    11   ar
    11    11    12   ar
    12    12    13   ar
    13    13    14   ar
    14    14    15   ar
    15    15    16   ar
    16    16    17   ar
    17    17    18   ar
    18    18    19   ar
    19    19    20   ar
    20    20    21   ar
    21    11    22    1
    22    22    23   ar
    23    23    24   ar
    24    24    25   ar
    25    25    26   ar
    26     5     1    1
    27    15     6   ar
    28    21    16   ar
    29    26    22   ar
    30    21     4   ar
    31    14     9   ar
    32     1    27    1
    33     1    28    1
    34     2    29    1
    35     3    30    1
    36     7    31    1
    37     8    32    1
    38    10    33    1
    39    12    34    1
    40    13    35    1
    41    17    36    1
    42    18    37    1
    43    19    38    1
    44    20    39    1
    45    23    40    1
    46    24    41    1
    47    25    42    1
