@<TRIPOS>MOLECULE
*****
 35 39 0 0 0
SMALL
GASTEIGER

@<TRIPOS>ATOM
      1 C          -1.5952    3.5627   -0.9670 C.3     1  UNL1       -0.0080
      2 C          -3.0373    3.8635   -1.3356 C.2     1  UNL1       -0.0791
      3 C          -3.8316    2.7794   -1.3224 C.2     1  UNL1       -0.0572
      4 C          -2.9864    1.6799   -0.9467 C.ar    1  UNL1       -0.0105
      5 C          -1.6494    2.0751   -0.7219 C.ar    1  UNL1       -0.0267
      6 C          -0.5866    1.1875   -0.3346 C.ar    1  UNL1        0.0050
      7 C           0.7229    1.6072   -0.1146 C.ar    1  UNL1        0.0363
      8 N           1.7514    0.7999    0.2526 N.ar    1  UNL1       -0.2543
      9 C           1.5129   -0.5285    0.4176 C.ar    1  UNL1        0.0716
     10 C           0.2435   -1.0697    0.2358 C.ar    1  UNL1       -0.0273
     11 C          -0.8091   -0.2126   -0.1422 C.ar    1  UNL1       -0.0034
     12 C          -2.1651   -0.5770   -0.3744 C.ar    1  UNL1        0.0282
     13 C          -2.7572   -1.8104   -0.2888 C.ar    1  UNL1        0.1000
     14 O          -4.0886   -1.7074   -0.5982 O.2     1  UNL1       -0.4698
     15 C          -4.3507   -0.3934   -0.8843 C.ar    1  UNL1        0.1000
     16 C          -3.1993    0.3321   -0.7588 C.ar    1  UNL1        0.0278
     17 C           2.6820   -1.3439    0.8114 C.ar    1  UNL1        0.0004
     18 C           3.7002   -0.7965    1.6145 C.ar    1  UNL1       -0.0526
     19 C           4.8106   -1.5514    2.0044 C.ar    1  UNL1       -0.0611
     20 C           4.9309   -2.8749    1.5932 C.ar    1  UNL1       -0.0617
     21 C           3.9454   -3.4401    0.7895 C.ar    1  UNL1       -0.0611
     22 C           2.8350   -2.6820    0.4018 C.ar    1  UNL1       -0.0526
     23 H          -1.3073    4.1040   -0.0613 H       1  UNL1        0.0356
     24 H          -0.9260    3.8039   -1.7978 H       1  UNL1        0.0356
     25 H          -3.3756    4.8607   -1.5824 H       1  UNL1        0.0575
     26 H          -4.8841    2.7254   -1.5440 H       1  UNL1        0.0621
     27 H           1.0072    2.6500   -0.2290 H       1  UNL1        0.0836
     28 H           0.0592   -2.1252    0.3970 H       1  UNL1        0.0645
     29 H          -2.4191   -2.8063   -0.0408 H       1  UNL1        0.1036
     30 H          -5.3742   -0.1680   -1.1473 H       1  UNL1        0.1036
     31 H           3.6277    0.2388    1.9454 H       1  UNL1        0.0624
     32 H           5.5795   -1.1002    2.6260 H       1  UNL1        0.0618
     33 H           5.7949   -3.4621    1.8925 H       1  UNL1        0.0618
     34 H           4.0418   -4.4703    0.4563 H       1  UNL1        0.0618
     35 H           2.0976   -3.1501   -0.2460 H       1  UNL1        0.0624
@<TRIPOS>BOND
     1     1     2    1
     2     2     3    2
     3     3     4    1
     4     4     5   ar
     5     5     6   ar
     6     6     7   ar
     7     7     8   ar
     8     8     9   ar
     9     9    10   ar
    10    10    11   ar
    11    11    12   ar
    12    12    13   ar
    13    13    14   ar
    14    14    15   ar
    15    15    16   ar
    16     9    17    1
    17    17    18   ar
    18    18    19   ar
    19    19    20   ar
    20    20    21   ar
    21    21    22   ar
    22     5     1    1
    23    11     6   ar
    24    16    12   ar
    25    22    17   ar
    26    16     4   ar
    27     1    23    1
    28     1    24    1
    29     2    25    1
    30     3    26    1
    31     7    27    1
    32    10    28    1
    33    13    29    1
    34    15    30    1
    35    18    31    1
    36    19    32    1
    37    20    33    1
    38    21    34    1
    39    22    35    1
