@<TRIPOS>MOLECULE
*****
 48 55 0 0 0
SMALL
GASTEIGER

@<TRIPOS>ATOM
      1 C          -5.2057   -1.5076    1.3623 C.3     1  UNL1       -0.0080
      2 C          -6.5470   -0.8506    1.0945 C.2     1  UNL1       -0.0791
      3 C          -6.4517    0.2675    0.3559 C.2     1  UNL1       -0.0573
      4 C          -5.0504    0.4411    0.0875 C.ar    1  UNL1       -0.0121
      5 C          -4.2579   -0.5725    0.6493 C.ar    1  UNL1       -0.0267
      6 C          -2.8326   -0.6661    0.5086 C.ar    1  UNL1        0.0055
      7 C          -2.1435   -1.7645    1.0054 C.ar    1  UNL1        0.0363
      8 N          -0.8124   -1.9874    0.8894 N.ar    1  UNL1       -0.2543
      9 C          -0.0373   -1.0491    0.3421 C.ar    1  UNL1        0.0728
     10 C           1.3401   -1.3705    0.2946 C.ar    1  UNL1       -0.0274
     11 C           2.3845   -0.5274   -0.1499 C.ar    1  UNL1       -0.0070
     12 C           3.7732   -0.9210   -0.1687 C.ar    1  UNL1       -0.0065
     13 C           4.3588   -1.7797   -1.1367 C.ar    1  UNL1       -0.0533
     14 C           5.7464   -2.1747   -1.1442 C.ar    1  UNL1       -0.0605
     15 C           6.6986   -1.7614   -0.1836 C.ar    1  UNL1       -0.0510
     16 C           6.1014   -0.9332    0.7560 C.ar    1  UNL1        0.0204
     17 C           6.7003   -0.3482    1.8389 C.ar    1  UNL1        0.0994
     18 O           5.7747    0.3877    2.5288 O.2     1  UNL1       -0.4698
     19 C           4.5775    0.2645    1.8755 C.ar    1  UNL1        0.1000
     20 C           4.7322   -0.5355    0.7720 C.ar    1  UNL1        0.0276
     21 C           1.8916    0.7358   -0.4918 C.ar    1  UNL1       -0.0024
     22 C           2.6973    1.7841   -0.8770 C.ar    1  UNL1       -0.0160
     23 S           1.8021    3.2324   -1.0576 S.2     1  UNL1       -0.1038
     24 C           0.3358    2.4502   -0.6303 C.ar    1  UNL1       -0.0159
     25 C           0.4862    1.0918   -0.4719 C.ar    1  UNL1       -0.0005
     26 C          -0.5794    0.1857   -0.1372 C.ar    1  UNL1        0.0170
     27 C          -2.0328    0.3211   -0.1675 C.ar    1  UNL1        0.0028
     28 C          -2.8995    1.2774   -0.8147 C.ar    1  UNL1        0.0084
     29 C          -2.5942    2.1837   -1.8038 C.ar    1  UNL1        0.0100
     30 N          -3.7501    2.8594   -2.1439 N.ar    1  UNL1       -0.3659
     31 C          -4.8236    2.3335   -1.4645 C.ar    1  UNL1        0.0100
     32 C          -4.3293    1.3283   -0.6759 C.ar    1  UNL1        0.0074
     33 H          -4.9981   -1.5394    2.4357 H       1  UNL1        0.0356
     34 H          -5.1777   -2.5108    0.9272 H       1  UNL1        0.0356
     35 H          -7.4782   -1.2586    1.4625 H       1  UNL1        0.0575
     36 H          -7.2444    0.9140    0.0203 H       1  UNL1        0.0621
     37 H          -2.6647   -2.5713    1.5159 H       1  UNL1        0.0836
     38 H           1.6184   -2.3637    0.6572 H       1  UNL1        0.0645
     39 H           3.7239   -2.1693   -1.9349 H       1  UNL1        0.0624
     40 H           6.0781   -2.8379   -1.9448 H       1  UNL1        0.0618
     41 H           7.7352   -2.0657   -0.1974 H       1  UNL1        0.0625
     42 H           7.6992   -0.3435    2.2510 H       1  UNL1        0.1035
     43 H           3.7491    0.7973    2.3212 H       1  UNL1        0.1036
     44 H           3.7694    1.8031   -1.0205 H       1  UNL1        0.0700
     45 H          -0.5457    3.0601   -0.5086 H       1  UNL1        0.0700
     46 H          -1.6831    2.4078   -2.3387 H       1  UNL1        0.0813
     47 H          -3.8078    3.5884   -2.8435 H       1  UNL1        0.1648
     48 H          -5.8269    2.6947   -1.6445 H       1  UNL1        0.0813
@<TRIPOS>BOND
     1     1     2    1
     2     2     3    2
     3     3     4    1
     4     4     5   ar
     5     5     6   ar
     6     6     7   ar
     7     7     8   ar
     8     8     9   ar
     9     9    10   ar
    10    10    11   ar
    11    11    12    1
    12    12    13   ar
    13    13    14   ar
    14    14    15   ar
    15    15    16   ar
    16    16    17   ar
    17    17    18   ar
    18    18    19   ar
    19    19    20   ar
    20    11    21   ar
    21    21    22   ar
    22    22    23   ar
    23    23    24   ar
    24    24    25   ar
    25    25    26   ar
    26    26    27   ar
    27    27    28   ar
    28    28    29   ar
    29    29    30   ar
    30    30    31   ar
    31    31    32   ar
    32     5     1    1
    33    27     6   ar
    34    32    28   ar
    35    32     4   ar
    36    26     9   ar
    37    20    12   ar
    38    25    21   ar
    39    20    16   ar
    40     1    33    1
    41     1    34    1
    42     2    35    1
    43     3    36    1
    44     7    37    1
    45    10    38    1
    46    13    39    1
    47    14    40    1
    48    15    41    1
    49    17    42    1
    50    19    43    1
    51    22    44    1
    52    24    45    1
    53    29    46    1
    54    30    47    1
    55    31    48    1
