@<TRIPOS>MOLECULE
*****
 39 45 0 0 0
SMALL
GASTEIGER

@<TRIPOS>ATOM
      1 C           4.1608   -2.2240   -0.0726 C.3     1  UNL1       -0.0080
      2 C           5.5598   -1.6444   -0.0817 C.2     1  UNL1       -0.0791
      3 C           5.5751   -0.3024   -0.0423 C.2     1  UNL1       -0.0573
      4 C           4.1953    0.1109   -0.0092 C.ar    1  UNL1       -0.0130
      5 C           3.3106   -0.9751   -0.0246 C.ar    1  UNL1       -0.0267
      6 C           1.8872   -0.8600    0.0093 C.ar    1  UNL1        0.0055
      7 C           1.1103   -2.0079    0.0504 C.ar    1  UNL1        0.0363
      8 N          -0.2392   -2.0472    0.0906 N.ar    1  UNL1       -0.2543
      9 C          -0.9257   -0.9113    0.0109 C.ar    1  UNL1        0.0744
     10 C          -2.3130   -1.0877    0.0141 C.ar    1  UNL1       -0.0228
     11 C          -3.2830   -0.0715   -0.1155 C.ar    1  UNL1        0.0494
     12 C          -4.7162   -0.3286   -0.0832 C.ar    1  UNL1        0.1652
     13 N          -5.5042    0.5457    0.5457 N.ar    1  UNL1       -0.2159
     14 C          -6.7952    0.2264    0.5547 C.ar    1  UNL1        0.1200
     15 N          -7.3343   -0.8689    0.0266 N.ar    1  UNL1       -0.2241
     16 C          -6.4502   -1.6777   -0.5502 C.ar    1  UNL1        0.1200
     17 N          -5.1374   -1.4739   -0.6321 N.ar    1  UNL1       -0.2159
     18 C          -2.7370    1.2126   -0.3394 C.ar    1  UNL1        0.1113
     19 N          -3.4247    2.3384   -0.6008 N.ar    1  UNL1       -0.1900
     20 S          -2.3305    3.5419   -0.8561 S.2     1  UNL1        0.1165
     21 N          -0.9265    2.7048   -0.6508 N.ar    1  UNL1       -0.1901
     22 C          -1.2302    1.4346   -0.3362 C.ar    1  UNL1        0.1103
     23 C          -0.2869    0.3579   -0.0821 C.ar    1  UNL1        0.0369
     24 C           1.1781    0.3957    0.0144 C.ar    1  UNL1        0.0034
     25 C           2.1291    1.4948    0.1282 C.ar    1  UNL1       -0.0018
     26 C           1.8221    2.8042    0.4172 C.ar    1  UNL1       -0.0160
     27 S           3.2007    3.8329    0.4622 S.2     1  UNL1       -0.1038
     28 C           4.2692    2.5198    0.2180 C.ar    1  UNL1       -0.0160
     29 C           3.5784    1.3395    0.0992 C.ar    1  UNL1       -0.0029
     30 H           3.9744   -2.7957   -0.9864 H       1  UNL1        0.0356
     31 H           4.0083   -2.8435    0.8160 H       1  UNL1        0.0356
     32 H           6.4467   -2.2624   -0.1130 H       1  UNL1        0.0575
     33 H           6.4344    0.3468   -0.0349 H       1  UNL1        0.0621
     34 H           1.5617   -2.9977    0.0700 H       1  UNL1        0.0836
     35 H          -2.6757   -2.1142    0.1260 H       1  UNL1        0.0647
     36 H          -7.4696    0.9231    1.0407 H       1  UNL1        0.1048
     37 H          -6.8346   -2.5898   -0.9942 H       1  UNL1        0.1048
     38 H           0.8753    3.2647    0.6371 H       1  UNL1        0.0700
     39 H           5.3368    2.6893    0.2074 H       1  UNL1        0.0700
@<TRIPOS>BOND
     1     1     2    1
     2     2     3    2
     3     3     4    1
     4     4     5   ar
     5     5     6   ar
     6     6     7   ar
     7     7     8   ar
     8     8     9   ar
     9     9    10   ar
    10    10    11   ar
    11    11    12    1
    12    12    13   ar
    13    13    14   ar
    14    14    15   ar
    15    15    16   ar
    16    16    17   ar
    17    11    18   ar
    18    18    19   ar
    19    19    20   ar
    20    20    21   ar
    21    21    22   ar
    22    22    23   ar
    23    23    24   ar
    24    24    25   ar
    25    25    26   ar
    26    26    27   ar
    27    27    28   ar
    28    28    29   ar
    29     5     1    1
    30    24     6   ar
    31    29    25   ar
    32    29     4   ar
    33    23     9   ar
    34    17    12   ar
    35    22    18   ar
    36     1    30    1
    37     1    31    1
    38     2    32    1
    39     3    33    1
    40     7    34    1
    41    10    35    1
    42    14    36    1
    43    16    37    1
    44    26    38    1
    45    28    39    1
