@<TRIPOS>MOLECULE
*****
 36 41 0 0 0
SMALL
GASTEIGER

@<TRIPOS>ATOM
      1 C           4.3711    1.8814    0.3829 C.3     1  UNL1       -0.0079
      2 C           5.7152    1.2081    0.2076 C.2     1  UNL1       -0.0790
      3 C           5.6149   -0.1026   -0.0647 C.2     1  UNL1       -0.0558
      4 C           4.2027   -0.4055   -0.0925 C.ar    1  UNL1        0.0070
      5 C           3.4221    0.7274    0.1648 C.ar    1  UNL1       -0.0252
      6 C           2.0094    0.7132    0.1975 C.ar    1  UNL1        0.0070
      7 C           1.2935    1.8736    0.4579 C.ar    1  UNL1        0.0363
      8 N          -0.0516    1.9609    0.5101 N.ar    1  UNL1       -0.2543
      9 C          -0.7772    0.8566    0.3001 C.ar    1  UNL1        0.0722
     10 C          -2.1585    0.9922    0.3654 C.ar    1  UNL1       -0.0275
     11 C          -3.0323   -0.0830    0.1659 C.ar    1  UNL1       -0.0093
     12 C          -2.4800   -1.3291   -0.1166 C.ar    1  UNL1       -0.0528
     13 C          -1.0929   -1.4866   -0.1852 C.ar    1  UNL1       -0.0513
     14 C          -0.2027   -0.4027    0.0207 C.ar    1  UNL1        0.0103
     15 C           1.2412   -0.4746   -0.0317 C.ar    1  UNL1        0.0212
     16 C           2.0408   -1.6723   -0.3038 C.ar    1  UNL1        0.1088
     17 N           1.5898   -2.9157   -0.5543 N.ar    1  UNL1       -0.1901
     18 S           2.9041   -3.8933   -0.7916 S.2     1  UNL1        0.1165
     19 N           4.1377   -2.8073   -0.5953 N.ar    1  UNL1       -0.1902
     20 C           3.5615   -1.6241   -0.3321 C.ar    1  UNL1        0.1079
     21 C          -4.4899    0.0818    0.2269 C.ar    1  UNL1        0.0194
     22 C          -5.4513   -0.4135   -0.6367 C.ar    1  UNL1       -0.0469
     23 C          -6.7769   -0.0638   -0.2461 C.ar    1  UNL1       -0.0541
     24 C          -6.7909    0.6817    0.9101 C.ar    1  UNL1       -0.0237
     25 S          -5.2168    0.9539    1.5164 S.2     1  UNL1       -0.0967
     26 H           4.2291    2.6608   -0.3715 H       1  UNL1        0.0356
     27 H           4.2737    2.2908    1.3926 H       1  UNL1        0.0356
     28 H           6.6522    1.7411    0.2958 H       1  UNL1        0.0575
     29 H           6.4081   -0.8133   -0.2337 H       1  UNL1        0.0621
     30 H           1.7917    2.8224    0.6434 H       1  UNL1        0.0836
     31 H          -2.5593    1.9835    0.5711 H       1  UNL1        0.0645
     32 H          -3.1170   -2.1970   -0.2741 H       1  UNL1        0.0624
     33 H          -0.7241   -2.4844   -0.4028 H       1  UNL1        0.0624
     34 H          -5.2147   -0.9953   -1.5196 H       1  UNL1        0.0629
     35 H          -7.6725   -0.3453   -0.7860 H       1  UNL1        0.0623
     36 H          -7.6501    1.0801    1.4318 H       1  UNL1        0.0693
@<TRIPOS>BOND
     1     1     2    1
     2     2     3    2
     3     3     4    1
     4     4     5   ar
     5     5     6   ar
     6     6     7   ar
     7     7     8   ar
     8     8     9   ar
     9     9    10   ar
    10    10    11   ar
    11    11    12   ar
    12    12    13   ar
    13    13    14   ar
    14    14    15   ar
    15    15    16   ar
    16    16    17   ar
    17    17    18   ar
    18    18    19   ar
    19    19    20   ar
    20    11    21    1
    21    21    22   ar
    22    22    23   ar
    23    23    24   ar
    24    24    25   ar
    25     5     1    1
    26    15     6   ar
    27    20    16   ar
    28    25    21   ar
    29    20     4   ar
    30    14     9   ar
    31     1    26    1
    32     1    27    1
    33     2    28    1
    34     3    29    1
    35     7    30    1
    36    10    31    1
    37    12    32    1
    38    13    33    1
    39    22    34    1
    40    23    35    1
    41    24    36    1
