@<TRIPOS>MOLECULE
*****
 43 49 0 0 0
SMALL
GASTEIGER

@<TRIPOS>ATOM
      1 C          -4.2838    1.3222   -1.8702 C.3     1  UNL1        0.0000
      2 C          -5.6383    0.8113   -1.4540 C.2     1  UNL1        0.0000
      3 C          -5.5193    0.0386   -0.3626 C.2     1  UNL1        0.0000
      4 C          -4.1295   -0.0348    0.0287 C.ar    1  UNL1        0.0000
      5 C          -3.4030    0.7022   -0.8334 C.ar    1  UNL1        0.0000
      6 C          -1.9444    0.8300   -0.7726 C.ar    1  UNL1        0.0000
      7 N          -1.4021    1.6611   -1.6912 N.ar    1  UNL1        0.0000
      8 C          -0.0550    1.7408   -1.7265 C.ar    1  UNL1        0.0000
      9 C           0.8218    0.9665   -0.9737 C.ar    1  UNL1        0.0000
     10 C           2.2452    1.1218   -1.1834 C.ar    1  UNL1        0.0000
     11 C           3.2529    0.3443   -0.5674 C.ar    1  UNL1        0.0000
     12 C           4.6687    0.5157   -0.8079 C.ar    1  UNL1        0.0000
     13 C           5.4021    1.0826   -1.8332 C.ar    1  UNL1        0.0000
     14 C           6.7669    0.9718   -1.4705 C.ar    1  UNL1        0.0000
     15 C           6.7846    0.3553   -0.2431 C.ar    1  UNL1        0.0000
     16 O           5.5205    0.0804    0.1670 O.2     1  UNL1        0.0000
     17 C           2.6708   -0.6439    0.2233 C.ar    1  UNL1        0.0000
     18 C           3.2948   -1.6874    0.8600 C.ar    1  UNL1        0.0000
     19 O           2.3649   -2.5136    1.4161 O.2     1  UNL1        0.0000
     20 C           1.1370   -1.9914    1.1339 C.ar    1  UNL1        0.0000
     21 C           1.2617   -0.7994    0.4629 C.ar    1  UNL1        0.0000
     22 C           0.2226    0.0387   -0.0513 C.ar    1  UNL1        0.0000
     23 C          -1.1946    0.0657    0.1514 C.ar    1  UNL1        0.0000
     24 C          -1.9749   -0.5889    1.2454 C.ar    1  UNL1        0.0000
     25 C          -1.5177   -0.9709    2.4567 C.2     1  UNL1        0.0000
     26 SI         -2.8739   -1.7098    3.5187 Si      1  UNL1        0.0000
     27 C          -4.0837   -1.2619    2.1755 C.2     1  UNL1        0.0000
     28 C          -3.4594   -0.6795    1.1331 C.ar    1  UNL1        0.0000
     29 H          -4.0337    0.9773   -2.8782 H       1  UNL1        0.0000
     30 H          -4.2538    2.4155   -1.8303 H       1  UNL1        0.0000
     31 H          -6.5603    1.0432   -1.9648 H       1  UNL1        0.0000
     32 H          -6.3250   -0.4569    0.1563 H       1  UNL1        0.0000
     33 H           0.3156    2.4623   -2.4524 H       1  UNL1        0.0000
     34 H           2.5696    1.8969   -1.8816 H       1  UNL1        0.0000
     35 H           5.0030    1.5188   -2.7380 H       1  UNL1        0.0000
     36 H           7.6294    1.3029   -2.0315 H       1  UNL1        0.0000
     37 H           7.5713    0.0585    0.4365 H       1  UNL1        0.0000
     38 H           4.3212   -2.0069    0.9747 H       1  UNL1        0.0000
     39 H           0.3092   -2.6052    1.4562 H       1  UNL1        0.0000
     40 H          -0.5228   -0.8772    2.8583 H       1  UNL1        0.0000
     41 H          -3.0947   -0.9400    4.7661 H       1  UNL1        0.0000
     42 H          -2.7180   -3.1751    3.6802 H       1  UNL1        0.0000
     43 H          -5.1459   -1.3817    2.3166 H       1  UNL1        0.0000
@<TRIPOS>BOND
     1     1     2    1
     2     2     3    2
     3     3     4    1
     4     4     5   ar
     5     5     6   ar
     6     6     7   ar
     7     7     8   ar
     8     8     9   ar
     9     9    10   ar
    10    10    11   ar
    11    11    12    1
    12    12    13   ar
    13    13    14   ar
    14    14    15   ar
    15    15    16   ar
    16    11    17   ar
    17    17    18   ar
    18    18    19   ar
    19    19    20   ar
    20    20    21   ar
    21    21    22   ar
    22    22    23   ar
    23    23    24   ar
    24    24    25    2
    25    25    26    1
    26    26    27    1
    27    27    28    2
    28     5     1    1
    29    23     6   ar
    30    28    24   ar
    31    28     4   ar
    32    22     9   ar
    33    16    12   ar
    34    21    17   ar
    35     1    29    1
    36     1    30    1
    37     2    31    1
    38     3    32    1
    39     8    33    1
    40    10    34    1
    41    13    35    1
    42    14    36    1
    43    15    37    1
    44    18    38    1
    45    20    39    1
    46    25    40    1
    47    26    41    1
    48    26    42    1
    49    27    43    1
