@<TRIPOS>MOLECULE
*****
 41 46 0 0 0
SMALL
GASTEIGER

@<TRIPOS>ATOM
      1 C          -2.6126    3.3591   -0.5629 C.3     1  UNL1       -0.0051
      2 C          -4.1149    3.4528   -0.5140 C.2     1  UNL1       -0.0790
      3 C          -4.6973    2.2760   -0.2332 C.2     1  UNL1       -0.0572
      4 C          -3.6510    1.2671   -0.0635 C.ar    1  UNL1       -0.0106
      5 C          -2.4181    1.9055   -0.2579 C.ar    1  UNL1        0.0069
      6 C          -1.2658    1.1518   -0.1481 C.ar    1  UNL1        0.1409
      7 O          -0.0055    1.6259   -0.3077 O.2     1  UNL1       -0.4545
      8 C           0.8372    0.5794   -0.1204 C.ar    1  UNL1        0.1369
      9 C           2.2283    0.6612   -0.2013 C.ar    1  UNL1       -0.0110
     10 C           2.9694   -0.5128    0.0154 C.ar    1  UNL1       -0.0129
     11 C           2.2792   -1.7028    0.3034 C.ar    1  UNL1       -0.0532
     12 C           0.8753   -1.7549    0.3796 C.ar    1  UNL1       -0.0498
     13 C           0.1258   -0.5824    0.1616 C.ar    1  UNL1        0.0285
     14 C          -1.2663   -0.2125    0.1461 C.ar    1  UNL1        0.0359
     15 C          -2.5379   -0.8573    0.3434 C.ar    1  UNL1       -0.0060
     16 C          -2.6256   -2.2338    0.6439 C.ar    1  UNL1       -0.0533
     17 C          -3.8625   -2.8525    0.8340 C.ar    1  UNL1       -0.0611
     18 C          -5.0346   -2.1139    0.7288 C.ar    1  UNL1       -0.0611
     19 C          -4.9769   -0.7515    0.4326 C.ar    1  UNL1       -0.0534
     20 C          -3.7433   -0.0981    0.2351 C.ar    1  UNL1       -0.0097
     21 C           4.4385   -0.4926   -0.0559 C.ar    1  UNL1        0.0003
     22 C           5.2016    0.4348    0.6654 C.ar    1  UNL1       -0.0512
     23 C           6.5929    0.4237    0.5773 C.ar    1  UNL1       -0.0430
     24 C           7.1921   -0.5220   -0.2363 C.ar    1  UNL1        0.0276
     25 N           6.5043   -1.4352   -0.9515 N.ar    1  UNL1       -0.2627
     26 C           5.1531   -1.3957   -0.8457 C.ar    1  UNL1        0.0353
     27 H          -2.1518    3.9915    0.2010 H       1  UNL1        0.0357
     28 H          -2.2328    3.6119   -1.5567 H       1  UNL1        0.0357
     29 H          -4.6516    4.3747   -0.6885 H       1  UNL1        0.0575
     30 H          -5.7553    2.0907   -0.1447 H       1  UNL1        0.0621
     31 H           2.7043    1.6068   -0.4380 H       1  UNL1        0.0660
     32 H           2.8354   -2.6216    0.4902 H       1  UNL1        0.0624
     33 H           0.3990   -2.7015    0.6090 H       1  UNL1        0.0625
     34 H          -1.7374   -2.8469    0.7349 H       1  UNL1        0.0624
     35 H          -3.9083   -3.9139    1.0646 H       1  UNL1        0.0618
     36 H          -5.9974   -2.5963    0.8768 H       1  UNL1        0.0618
     37 H          -5.9124   -0.2028    0.3572 H       1  UNL1        0.0624
     38 H           4.7177    1.1646    1.3105 H       1  UNL1        0.0625
     39 H           7.1932    1.1346    1.1337 H       1  UNL1        0.0633
     40 H           8.2725   -0.5716   -0.3368 H       1  UNL1        0.0829
     41 H           4.6392   -2.1399   -1.4498 H       1  UNL1        0.0836
@<TRIPOS>BOND
     1     1     2    1
     2     2     3    2
     3     3     4    1
     4     4     5   ar
     5     5     6   ar
     6     6     7   ar
     7     7     8   ar
     8     8     9   ar
     9     9    10   ar
    10    10    11   ar
    11    11    12   ar
    12    12    13   ar
    13    13    14   ar
    14    14    15   ar
    15    15    16   ar
    16    16    17   ar
    17    17    18   ar
    18    18    19   ar
    19    19    20   ar
    20    10    21    1
    21    21    22   ar
    22    22    23   ar
    23    23    24   ar
    24    24    25   ar
    25    25    26   ar
    26     5     1    1
    27    14     6   ar
    28    20    15   ar
    29    26    21   ar
    30    20     4   ar
    31    13     8   ar
    32     1    27    1
    33     1    28    1
    34     2    29    1
    35     3    30    1
    36     9    31    1
    37    11    32    1
    38    12    33    1
    39    16    34    1
    40    17    35    1
    41    18    36    1
    42    19    37    1
    43    22    38    1
    44    23    39    1
    45    24    40    1
    46    26    41    1
