@<TRIPOS>MOLECULE
*****
 44 51 0 0 0
SMALL
GASTEIGER

@<TRIPOS>ATOM
      1 C           4.7673    1.3196   -2.1712 C.3     1  UNL1       -0.0075
      2 C           6.2070    0.8694   -2.0099 C.2     1  UNL1       -0.0791
      3 C           6.3692   -0.0585   -1.0511 C.2     1  UNL1       -0.0572
      4 C           5.0595   -0.2977   -0.5020 C.ar    1  UNL1       -0.0100
      5 C           4.0772    0.4817   -1.1187 C.ar    1  UNL1       -0.0215
      6 C           2.7130    0.4128   -0.7420 C.ar    1  UNL1        0.0253
      7 S           1.4165    1.3128   -1.4267 S.2     1  UNL1       -0.0878
      8 C           0.2375    0.5981   -0.3916 C.ar    1  UNL1        0.0233
      9 C          -1.1463    0.8958   -0.4083 C.ar    1  UNL1       -0.0375
     10 C          -2.0545    0.2752    0.4656 C.ar    1  UNL1        0.0120
     11 C          -3.4768    0.5706    0.4634 C.ar    1  UNL1       -0.0066
     12 C          -4.2137    1.0418    1.5861 C.ar    1  UNL1       -0.0533
     13 C          -5.6197    1.3566    1.5723 C.ar    1  UNL1       -0.0605
     14 C          -6.4486    1.2350    0.4359 C.ar    1  UNL1       -0.0526
     15 C          -5.7185    0.7681   -0.6476 C.ar    1  UNL1       -0.0000
     16 C          -6.2183    0.5200   -1.8994 C.ar    1  UNL1        0.0094
     17 N          -5.1704    0.0506   -2.6618 N.ar    1  UNL1       -0.3659
     18 C          -4.0145    0.0008   -1.9089 C.ar    1  UNL1        0.0100
     19 C          -4.3244    0.4538   -0.6479 C.ar    1  UNL1        0.0072
     20 C          -1.4777   -0.6501    1.3691 C.ar    1  UNL1        0.1082
     21 N          -2.1394   -1.3598    2.3094 N.ar    1  UNL1       -0.1901
     22 S          -1.0241   -2.3024    3.1023 S.2     1  UNL1        0.1165
     23 N           0.3624   -1.8549    2.2979 N.ar    1  UNL1       -0.1901
     24 C          -0.0486   -0.9737    1.4036 C.ar    1  UNL1        0.1093
     25 C           0.8358   -0.3135    0.4682 C.ar    1  UNL1        0.0258
     26 C           2.2323   -0.4301    0.2727 C.ar    1  UNL1        0.0101
     27 C           3.2477   -1.2578    0.9258 C.ar    1  UNL1        0.0293
     28 C           3.2330   -2.1948    1.9166 C.ar    1  UNL1        0.1000
     29 O           4.5126   -2.6526    2.1185 O.2     1  UNL1       -0.4698
     30 C           5.3285   -1.9942    1.2422 C.ar    1  UNL1        0.1000
     31 C           4.5868   -1.1246    0.4849 C.ar    1  UNL1        0.0279
     32 H           4.6649    2.3871   -1.9566 H       1  UNL1        0.0356
     33 H           4.3937    1.0842   -3.1717 H       1  UNL1        0.0356
     34 H           7.0106    1.2664   -2.6148 H       1  UNL1        0.0575
     35 H           7.2836   -0.5367   -0.7426 H       1  UNL1        0.0621
     36 H          -1.5192    1.6359   -1.1174 H       1  UNL1        0.0636
     37 H          -3.6864    1.1785    2.5320 H       1  UNL1        0.0624
     38 H          -6.0685    1.7077    2.5021 H       1  UNL1        0.0618
     39 H          -7.5030    1.4690    0.4362 H       1  UNL1        0.0624
     40 H          -7.2088    0.6196   -2.3219 H       1  UNL1        0.0813
     41 H          -5.2410   -0.2292   -3.6315 H       1  UNL1        0.1648
     42 H          -3.0959   -0.3614   -2.3492 H       1  UNL1        0.0813
     43 H           2.5048   -2.6577    2.5608 H       1  UNL1        0.1036
     44 H           6.3744   -2.2615    1.2923 H       1  UNL1        0.1036
@<TRIPOS>BOND
     1     1     2    1
     2     2     3    2
     3     3     4    1
     4     4     5   ar
     5     5     6   ar
     6     6     7   ar
     7     7     8   ar
     8     8     9   ar
     9     9    10   ar
    10    10    11    1
    11    11    12   ar
    12    12    13   ar
    13    13    14   ar
    14    14    15   ar
    15    15    16   ar
    16    16    17   ar
    17    17    18   ar
    18    18    19   ar
    19    10    20   ar
    20    20    21   ar
    21    21    22   ar
    22    22    23   ar
    23    23    24   ar
    24    24    25   ar
    25    25    26   ar
    26    26    27   ar
    27    27    28   ar
    28    28    29   ar
    29    29    30   ar
    30    30    31   ar
    31     5     1    1
    32    26     6   ar
    33    31    27   ar
    34    31     4   ar
    35    25     8   ar
    36    19    11   ar
    37    24    20   ar
    38    19    15   ar
    39     1    32    1
    40     1    33    1
    41     2    34    1
    42     3    35    1
    43     9    36    1
    44    12    37    1
    45    13    38    1
    46    14    39    1
    47    16    40    1
    48    17    41    1
    49    18    42    1
    50    28    43    1
    51    30    44    1
