@<TRIPOS>MOLECULE
*****
 46 53 0 0 0
SMALL
GASTEIGER

@<TRIPOS>ATOM
      1 SI         -1.7064    0.9658    0.3313 Si      1  UNL1        0.0000
      2 C          -2.7411   -0.6137    0.0044 C.2     1  UNL1        0.0000
      3 C          -1.9076   -1.6565   -0.2268 C.2     1  UNL1        0.0000
      4 C          -0.4875   -1.3220   -0.1697 C.ar    1  UNL1        0.0000
      5 C          -0.0855    0.0130    0.1113 C.ar    1  UNL1        0.0000
      6 C           1.3125    0.4505    0.1906 C.ar    1  UNL1        0.0000
      7 C           1.8383    1.7481    0.4625 C.ar    1  UNL1        0.0000
      8 C           1.1474    2.9111    0.7179 C.ar    1  UNL1        0.0000
      9 N           2.0618    3.9216    0.9245 N.ar    1  UNL1        0.0000
     10 C           3.3365    3.4292    0.8064 C.ar    1  UNL1        0.0000
     11 C           3.2292    2.0880    0.5210 C.ar    1  UNL1        0.0000
     12 C           4.3067    1.1998    0.3203 C.ar    1  UNL1        0.0000
     13 C           5.6781    1.5389    0.3788 C.ar    1  UNL1        0.0000
     14 C           6.6234    0.5547    0.1590 C.ar    1  UNL1        0.0000
     15 C           6.1636   -0.7165   -0.1079 C.ar    1  UNL1        0.0000
     16 N           4.8532   -1.0575   -0.1674 N.ar    1  UNL1        0.0000
     17 C           3.8891   -0.1285    0.0408 C.ar    1  UNL1        0.0000
     18 C           2.4628   -0.4624   -0.0160 C.ar    1  UNL1        0.0000
     19 C           1.9671   -1.7743   -0.2913 C.ar    1  UNL1        0.0000
     20 C           2.6785   -2.9246   -0.5442 C.ar    1  UNL1        0.0000
     21 O           1.8340   -3.9769   -0.7604 O.2     1  UNL1        0.0000
     22 C           0.5603   -3.5054   -0.6468 C.ar    1  UNL1        0.0000
     23 C           0.5908   -2.1660   -0.3610 C.ar    1  UNL1        0.0000
     24 C          -4.2201   -0.6701    0.0074 C.ar    1  UNL1        0.0000
     25 C          -4.9277   -1.8795   -0.2439 C.ar    1  UNL1        0.0000
     26 C          -6.3384   -2.0111   -0.2577 C.ar    1  UNL1        0.0000
     27 C          -7.2044   -0.9403   -0.0201 C.ar    1  UNL1        0.0000
     28 C          -6.5886    0.3032    0.2393 C.ar    1  UNL1        0.0000
     29 N          -7.2494    1.4438    0.4897 N.ar    1  UNL1        0.0000
     30 S          -6.1008    2.6103    0.7272 S.2     1  UNL1        0.0000
     31 N          -4.7177    1.7265    0.5244 N.ar    1  UNL1        0.0000
     32 C          -5.0738    0.4563    0.2567 C.ar    1  UNL1        0.0000
     33 H          -1.8462    1.4605    1.7267 H       1  UNL1        0.0000
     34 H          -1.8712    1.9868   -0.7373 H       1  UNL1        0.0000
     35 H          -2.2090   -2.6714   -0.4405 H       1  UNL1        0.0000
     36 H           0.1004    3.1582    0.7813 H       1  UNL1        0.0000
     37 H           1.8248    4.8836    1.1324 H       1  UNL1        0.0000
     38 H           4.1871    4.0837    0.9375 H       1  UNL1        0.0000
     39 H           5.9964    2.5537    0.5924 H       1  UNL1        0.0000
     40 H           7.6844    0.7703    0.1943 H       1  UNL1        0.0000
     41 H           6.8565   -1.5336   -0.2894 H       1  UNL1        0.0000
     42 H           3.7286   -3.1717   -0.6076 H       1  UNL1        0.0000
     43 H          -0.2188   -4.2386   -0.7955 H       1  UNL1        0.0000
     44 H          -4.3691   -2.7937   -0.4448 H       1  UNL1        0.0000
     45 H          -6.7662   -2.9930   -0.4631 H       1  UNL1        0.0000
     46 H          -8.2819   -1.0503   -0.0327 H       1  UNL1        0.0000
@<TRIPOS>BOND
     1     1     2    1
     2     2     3    2
     3     3     4    1
     4     4     5   ar
     5     5     6   ar
     6     6     7   ar
     7     7     8   ar
     8     8     9   ar
     9     9    10   ar
    10    10    11   ar
    11    11    12   ar
    12    12    13   ar
    13    13    14   ar
    14    14    15   ar
    15    15    16   ar
    16    16    17   ar
    17    17    18   ar
    18    18    19   ar
    19    19    20   ar
    20    20    21   ar
    21    21    22   ar
    22    22    23   ar
    23     2    24    1
    24    24    25   ar
    25    25    26   ar
    26    26    27   ar
    27    27    28   ar
    28    28    29   ar
    29    29    30   ar
    30    30    31   ar
    31    31    32   ar
    32     5     1    1
    33    18     6   ar
    34    23    19   ar
    35    32    24   ar
    36    23     4   ar
    37    32    28   ar
    38    11     7   ar
    39    17    12   ar
    40     1    33    1
    41     1    34    1
    42     3    35    1
    43     8    36    1
    44     9    37    1
    45    10    38    1
    46    13    39    1
    47    14    40    1
    48    15    41    1
    49    20    42    1
    50    22    43    1
    51    25    44    1
    52    26    45    1
    53    27    46    1
