@<TRIPOS>MOLECULE
*****
 46 53 0 0 0
SMALL
GASTEIGER

@<TRIPOS>ATOM
      1 SI          3.8696    2.8647   -1.7185 Si      1  UNL1        0.0000
      2 C           4.2889    1.3089   -0.7902 C.2     1  UNL1        0.0000
      3 C           3.1789    0.6291   -0.4286 C.ar    1  UNL1        0.0000
      4 C           3.1895   -0.7024    0.2060 C.ar    1  UNL1        0.0000
      5 C           2.0013   -1.2994    0.4509 C.ar    1  UNL1        0.0000
      6 C           0.7886   -0.6088    0.1386 C.ar    1  UNL1        0.0000
      7 S          -0.7148   -1.3605    0.3679 S.2     1  UNL1        0.0000
      8 C          -1.6351    0.0444   -0.0649 C.ar    1  UNL1        0.0000
      9 C          -0.7150    1.0680   -0.3281 C.ar    1  UNL1        0.0000
     10 C          -1.2422    2.4089   -0.4893 C.ar    1  UNL1        0.0000
     11 N          -0.4825    3.4905   -0.5608 N.ar    1  UNL1        0.0000
     12 S          -1.5669    4.7437   -0.6988 S.2     1  UNL1        0.0000
     13 N          -2.9965    3.8957   -0.6372 N.ar    1  UNL1        0.0000
     14 C          -2.6830    2.5892   -0.4822 C.ar    1  UNL1        0.0000
     15 C          -3.5950    1.5237   -0.3260 C.ar    1  UNL1        0.0000
     16 C          -5.0400    1.8157   -0.3306 C.ar    1  UNL1        0.0000
     17 C          -5.9429    0.8439   -0.1366 C.ar    1  UNL1        0.0000
     18 C          -5.5074   -0.5188    0.0594 C.ar    1  UNL1        0.0000
     19 C          -6.3683   -1.5408    0.2242 C.2     1  UNL1        0.0000
     20 SI         -5.4709   -3.1580    0.3912 Si      1  UNL1        0.0000
     21 C          -3.8651   -2.2096    0.1960 C.2     1  UNL1        0.0000
     22 C          -4.0595   -0.8796    0.0619 C.ar    1  UNL1        0.0000
     23 C          -3.0557    0.2209   -0.1160 C.ar    1  UNL1        0.0000
     24 C           0.6600    0.6745   -0.3780 C.ar    1  UNL1        0.0000
     25 C           1.8915    1.3180   -0.7804 C.ar    1  UNL1        0.0000
     26 C           2.0728    2.4199   -1.5338 C.2     1  UNL1        0.0000
     27 C           4.3508   -1.4580    0.5407 C.ar    1  UNL1        0.0000
     28 C           4.8493   -1.9794    1.7192 C.ar    1  UNL1        0.0000
     29 C           6.0505   -2.6645    1.4127 C.ar    1  UNL1        0.0000
     30 C           6.2508   -2.5533    0.0554 C.ar    1  UNL1        0.0000
     31 N           5.2130   -1.8250   -0.4663 N.ar    1  UNL1        0.0000
     32 H           4.2459    4.0914   -0.9764 H       1  UNL1        0.0000
     33 H           4.3258    2.8060   -3.1283 H       1  UNL1        0.0000
     34 H           5.3163    1.0206   -0.6353 H       1  UNL1        0.0000
     35 H           1.9497   -2.2921    0.8906 H       1  UNL1        0.0000
     36 H          -5.3646    2.8405   -0.4842 H       1  UNL1        0.0000
     37 H          -7.0047    1.0677   -0.1362 H       1  UNL1        0.0000
     38 H          -7.4454   -1.4897    0.2432 H       1  UNL1        0.0000
     39 H          -5.6124   -3.7556    1.7405 H       1  UNL1        0.0000
     40 H          -5.7251   -4.0734   -0.7472 H       1  UNL1        0.0000
     41 H          -2.9553   -2.7788    0.2001 H       1  UNL1        0.0000
     42 H           1.3300    3.0404   -2.0011 H       1  UNL1        0.0000
     43 H           4.3982   -1.8709    2.6973 H       1  UNL1        0.0000
     44 H           6.6971   -3.1841    2.1080 H       1  UNL1        0.0000
     45 H           7.0379   -2.9305   -0.5836 H       1  UNL1        0.0000
     46 H           5.0923   -1.5930   -1.4437 H       1  UNL1        0.0000
@<TRIPOS>BOND
     1     1     2    1
     2     2     3    2
     3     3     4   ar
     4     4     5   ar
     5     5     6   ar
     6     6     7   ar
     7     7     8   ar
     8     8     9   ar
     9     9    10   ar
    10    10    11   ar
    11    11    12   ar
    12    12    13   ar
    13    13    14   ar
    14    14    15   ar
    15    15    16   ar
    16    16    17   ar
    17    17    18   ar
    18    18    19    2
    19    19    20    1
    20    20    21    1
    21    21    22    2
    22    22    23   ar
    23     9    24   ar
    24    24    25   ar
    25    25    26    2
    26     4    27    1
    27    27    28   ar
    28    28    29   ar
    29    29    30   ar
    30    30    31   ar
    31    26     1    1
    32    31    27   ar
    33    25     3   ar
    34    24     6   ar
    35    23     8   ar
    36    14    10   ar
    37    23    15   ar
    38    22    18   ar
    39     1    32    1
    40     1    33    1
    41     2    34    1
    42     5    35    1
    43    16    36    1
    44    17    37    1
    45    19    38    1
    46    20    39    1
    47    20    40    1
    48    21    41    1
    49    26    42    1
    50    28    43    1
    51    29    44    1
    52    30    45    1
    53    31    46    1
