@<TRIPOS>MOLECULE
*****
 44 50 0 0 0
SMALL
GASTEIGER

@<TRIPOS>ATOM
      1 C          -4.9054   -0.2292    2.5788 C.3     1  UNL1       -0.0075
      2 C          -6.3520    0.0013    2.1920 C.2     1  UNL1       -0.0791
      3 C          -6.5199    0.2276    0.8781 C.2     1  UNL1       -0.0573
      4 C          -5.2061    0.1670    0.2821 C.ar    1  UNL1       -0.0125
      5 C          -4.2197   -0.0993    1.2391 C.ar    1  UNL1       -0.0216
      6 C          -2.8564   -0.2046    0.8925 C.ar    1  UNL1        0.0252
      7 S          -1.5325   -0.5223    1.9325 S.2     1  UNL1       -0.0878
      8 C          -0.3843   -0.4563    0.6519 C.ar    1  UNL1        0.0240
      9 C           0.9994   -0.6382    0.7915 C.ar    1  UNL1       -0.0213
     10 C           1.7679   -0.5408   -0.3570 C.ar    1  UNL1        0.0726
     11 N           1.2262   -0.3109   -1.5692 N.ar    1  UNL1       -0.2543
     12 C          -0.1113   -0.1353   -1.6945 C.ar    1  UNL1        0.0371
     13 C          -0.9765   -0.1965   -0.5905 C.ar    1  UNL1        0.0157
     14 C          -2.3910   -0.0546   -0.4138 C.ar    1  UNL1        0.0069
     15 C          -3.3995    0.2278   -1.4436 C.ar    1  UNL1       -0.0014
     16 C          -3.2133    0.4217   -2.7827 C.ar    1  UNL1       -0.0160
     17 S          -4.7272    0.7212   -3.5557 S.2     1  UNL1       -0.1038
     18 C          -5.5944    0.5860   -2.0750 C.ar    1  UNL1       -0.0160
     19 C          -4.7578    0.3195   -1.0153 C.ar    1  UNL1       -0.0028
     20 C           3.2274   -0.7319   -0.3335 C.ar    1  UNL1        0.0081
     21 C           3.7545   -1.8535   -1.0044 C.ar    1  UNL1       -0.0520
     22 C           5.1171   -2.1306   -0.9880 C.ar    1  UNL1       -0.0605
     23 C           5.9831   -1.2869   -0.3009 C.ar    1  UNL1       -0.0540
     24 C           5.5044   -0.1485    0.3633 C.ar    1  UNL1       -0.0173
     25 C           6.4026    0.6962    1.0370 C.ar    1  UNL1       -0.0540
     26 C           5.9589    1.8449    1.6890 C.ar    1  UNL1       -0.0612
     27 C           4.6098    2.1689    1.6695 C.ar    1  UNL1       -0.0611
     28 C           3.7038    1.3378    1.0060 C.ar    1  UNL1       -0.0534
     29 C           4.1170    0.1530    0.3479 C.ar    1  UNL1       -0.0087
     30 H          -4.7669   -1.2294    2.9989 H       1  UNL1        0.0356
     31 H          -4.5594    0.5387    3.2763 H       1  UNL1        0.0356
     32 H          -7.1566   -0.0177    2.9142 H       1  UNL1        0.0575
     33 H          -7.4441    0.4180    0.3586 H       1  UNL1        0.0621
     34 H           1.4475   -0.8482    1.7567 H       1  UNL1        0.0650
     35 H          -0.4322    0.0496   -2.7097 H       1  UNL1        0.0836
     36 H          -2.3285    0.4189   -3.3947 H       1  UNL1        0.0700
     37 H          -6.6683    0.7124   -2.0784 H       1  UNL1        0.0700
     38 H           3.0844   -2.5206   -1.5451 H       1  UNL1        0.0624
     39 H           5.5020   -3.0026   -1.5096 H       1  UNL1        0.0618
     40 H           7.0458   -1.5205   -0.2975 H       1  UNL1        0.0624
     41 H           7.4660    0.4662    1.0535 H       1  UNL1        0.0624
     42 H           6.6685    2.4891    2.2012 H       1  UNL1        0.0618
     43 H           4.2577    3.0708    2.1631 H       1  UNL1        0.0618
     44 H           2.6594    1.6418    0.9956 H       1  UNL1        0.0624
@<TRIPOS>BOND
     1     1     2    1
     2     2     3    2
     3     3     4    1
     4     4     5   ar
     5     5     6   ar
     6     6     7   ar
     7     7     8   ar
     8     8     9   ar
     9     9    10   ar
    10    10    11   ar
    11    11    12   ar
    12    12    13   ar
    13    13    14   ar
    14    14    15   ar
    15    15    16   ar
    16    16    17   ar
    17    17    18   ar
    18    18    19   ar
    19    10    20    1
    20    20    21   ar
    21    21    22   ar
    22    22    23   ar
    23    23    24   ar
    24    24    25   ar
    25    25    26   ar
    26    26    27   ar
    27    27    28   ar
    28    28    29   ar
    29     5     1    1
    30    14     6   ar
    31    19    15   ar
    32    29    20   ar
    33    19     4   ar
    34    29    24   ar
    35    13     8   ar
    36     1    30    1
    37     1    31    1
    38     2    32    1
    39     3    33    1
    40     9    34    1
    41    12    35    1
    42    16    36    1
    43    18    37    1
    44    21    38    1
    45    22    39    1
    46    23    40    1
    47    25    41    1
    48    26    42    1
    49    27    43    1
    50    28    44    1
