@<TRIPOS>MOLECULE
*****
 43 49 0 0 0
SMALL
GASTEIGER

@<TRIPOS>ATOM
      1 C          -4.4055   -1.1803    1.6732 C.3     1  UNL1       -0.0086
      2 C          -5.6899   -0.5722    1.1395 C.2     1  UNL1       -0.0791
      3 C          -5.4884    0.3374    0.1700 C.2     1  UNL1       -0.0573
      4 C          -4.0623    0.4094   -0.0212 C.ar    1  UNL1       -0.0136
      5 C          -3.3759   -0.4670    0.8408 C.ar    1  UNL1       -0.0353
      6 C          -1.9675   -0.6084    0.8747 C.ar    1  UNL1       -0.0494
      7 C          -1.1059    0.1379    0.0186 C.ar    1  UNL1       -0.0088
      8 C           0.3524    0.0061    0.0444 C.ar    1  UNL1       -0.0089
      9 C           1.0558    0.7822    0.9706 C.ar    1  UNL1       -0.0436
     10 C           2.4542    0.7153    1.0570 C.ar    1  UNL1        0.0115
     11 C           3.1565    1.5254    2.0161 C.ar    1  UNL1        0.1076
     12 N           2.6185    2.3906    2.8970 N.ar    1  UNL1       -0.1902
     13 S           3.8769    3.0507    3.7519 S.2     1  UNL1        0.1165
     14 N           5.1648    2.2729    3.0527 N.ar    1  UNL1       -0.1908
     15 C           4.6525    1.4621    2.1146 C.ar    1  UNL1        0.1005
     16 C           5.3945    0.6121    1.2741 C.ar    1  UNL1       -0.0329
     17 C           4.6460   -0.1562    0.3561 C.ar    1  UNL1       -0.0513
     18 C           3.2122   -0.1424    0.2109 C.ar    1  UNL1       -0.0080
     19 C           2.4899   -0.9469   -0.7420 C.ar    1  UNL1       -0.0095
     20 C           3.1340   -1.8408   -1.6378 C.ar    1  UNL1       -0.0534
     21 C           2.4364   -2.6225   -2.5612 C.ar    1  UNL1       -0.0611
     22 C           1.0592   -2.5407   -2.6245 C.ar    1  UNL1       -0.0611
     23 C           0.3865   -1.6770   -1.7645 C.ar    1  UNL1       -0.0534
     24 C           1.0643   -0.8691   -0.8181 C.ar    1  UNL1       -0.0096
     25 C          -1.8034    1.0220   -0.8441 C.ar    1  UNL1       -0.0026
     26 C          -1.2100    1.8567   -1.7625 C.ar    1  UNL1       -0.0160
     27 S          -2.3750    2.7778   -2.6322 S.2     1  UNL1       -0.1038
     28 C          -3.6912    2.0677   -1.7830 C.ar    1  UNL1       -0.0160
     29 C          -3.2481    1.1520   -0.8628 C.ar    1  UNL1       -0.0029
     30 H          -4.2811   -0.9564    2.7364 H       1  UNL1        0.0356
     31 H          -4.3822   -2.2591    1.4950 H       1  UNL1        0.0356
     32 H          -6.6639   -0.8540    1.5153 H       1  UNL1        0.0575
     33 H          -6.2292    0.9068   -0.3652 H       1  UNL1        0.0621
     34 H          -1.5281   -1.3142    1.5788 H       1  UNL1        0.0627
     35 H           0.5055    1.4525    1.6317 H       1  UNL1        0.0631
     36 H           6.4747    0.5534    1.3308 H       1  UNL1        0.0640
     37 H           5.2420   -0.8064   -0.2835 H       1  UNL1        0.0624
     38 H           4.2141   -1.9538   -1.6400 H       1  UNL1        0.0624
     39 H           2.9757   -3.2918   -3.2264 H       1  UNL1        0.0618
     40 H           0.5033   -3.1428   -3.3380 H       1  UNL1        0.0618
     41 H          -0.6990   -1.6425   -1.8469 H       1  UNL1        0.0624
     42 H          -0.1593    1.9865   -1.9837 H       1  UNL1        0.0700
     43 H          -4.7041    2.3670   -2.0125 H       1  UNL1        0.0700
@<TRIPOS>BOND
     1     1     2    1
     2     2     3    2
     3     3     4    1
     4     4     5   ar
     5     5     6   ar
     6     6     7   ar
     7     7     8    1
     8     8     9   ar
     9     9    10   ar
    10    10    11   ar
    11    11    12   ar
    12    12    13   ar
    13    13    14   ar
    14    14    15   ar
    15    15    16   ar
    16    16    17   ar
    17    17    18   ar
    18    18    19   ar
    19    19    20   ar
    20    20    21   ar
    21    21    22   ar
    22    22    23   ar
    23    23    24   ar
    24     7    25   ar
    25    25    26   ar
    26    26    27   ar
    27    27    28   ar
    28    28    29   ar
    29     5     1    1
    30    24     8   ar
    31    29    25   ar
    32    29     4   ar
    33    18    10   ar
    34    24    19   ar
    35    15    11   ar
    36     1    30    1
    37     1    31    1
    38     2    32    1
    39     3    33    1
    40     6    34    1
    41     9    35    1
    42    16    36    1
    43    17    37    1
    44    20    38    1
    45    21    39    1
    46    22    40    1
    47    23    41    1
    48    26    42    1
    49    28    43    1
