@<TRIPOS>MOLECULE
*****
 43 49 0 0 0
SMALL
GASTEIGER

@<TRIPOS>ATOM
      1 C          -6.9467    0.5363   -0.2890 C.3     1  UNL1        0.0000
      2 C          -6.0328    1.4393   -1.1215 C.2     1  UNL1        0.0000
      3 C          -4.7296    1.1383   -0.9208 C.2     1  UNL1        0.0000
      4 C          -4.6294    0.0676    0.0077 C.ar    1  UNL1        0.0000
      5 C          -5.9341   -0.3092    0.4047 C.ar    1  UNL1        0.0000
      6 C          -5.9300   -1.3338    1.3075 C.ar    1  UNL1        0.0000
      7 S          -4.3120   -1.8210    1.6544 S.2     1  UNL1        0.0000
      8 C          -3.6039   -0.6375    0.5841 C.ar    1  UNL1        0.0000
      9 C          -2.2021   -0.5451    0.4061 C.2     1  UNL1        0.0000
     10 C          -1.6070   -0.5289   -0.8026 C.2     1  UNL1        0.0000
     11 C          -0.1539   -0.3796   -0.7262 C.ar    1  UNL1        0.0000
     12 C           0.4574   -0.2591    0.5586 C.ar    1  UNL1        0.0000
     13 SI         -0.9882   -0.3546    1.8239 Si      1  UNL1        0.0000
     14 C           1.8710   -0.1012    0.7980 C.ar    1  UNL1        0.0000
     15 C           2.3782    0.0078    2.1011 C.ar    1  UNL1        0.0000
     16 C           3.7408    0.1611    2.3487 C.ar    1  UNL1        0.0000
     17 C           4.6600    0.2124    1.2987 C.ar    1  UNL1        0.0000
     18 C           6.0255    0.3675    1.5790 C.ar    1  UNL1        0.0000
     19 C           6.9472    0.4199    0.5462 C.ar    1  UNL1        0.0000
     20 C           6.4653    0.3146   -0.7375 C.ar    1  UNL1        0.0000
     21 N           5.1563    0.1648   -1.0361 N.ar    1  UNL1        0.0000
     22 C           4.2338    0.1103   -0.0428 C.ar    1  UNL1        0.0000
     23 C           2.8298   -0.0477   -0.2860 C.ar    1  UNL1        0.0000
     24 C           2.1892   -0.1711   -1.5755 C.ar    1  UNL1        0.0000
     25 C           2.8414   -0.1555   -2.7898 C.ar    1  UNL1        0.0000
     26 S           1.7735   -0.3258   -4.1233 S.2     1  UNL1        0.0000
     27 C           0.4057   -0.4258   -3.0983 C.ar    1  UNL1        0.0000
     28 C           0.7588   -0.3298   -1.7729 C.ar    1  UNL1        0.0000
     29 H          -7.5999   -0.0573   -0.9345 H       1  UNL1        0.0000
     30 H          -7.5374    1.1260    0.4173 H       1  UNL1        0.0000
     31 H          -6.3985    2.2151   -1.7773 H       1  UNL1        0.0000
     32 H          -3.8875    1.6323   -1.3848 H       1  UNL1        0.0000
     33 H          -6.7663   -1.8272    1.7823 H       1  UNL1        0.0000
     34 H          -2.1296   -0.6162   -1.7451 H       1  UNL1        0.0000
     35 H          -1.1274    0.9270    2.5640 H       1  UNL1        0.0000
     36 H          -0.8566   -1.5608    2.6824 H       1  UNL1        0.0000
     37 H           1.7238   -0.0239    2.9690 H       1  UNL1        0.0000
     38 H           4.0765    0.2402    3.3811 H       1  UNL1        0.0000
     39 H           6.3773    0.4481    2.6048 H       1  UNL1        0.0000
     40 H           8.0067    0.5389    0.7387 H       1  UNL1        0.0000
     41 H           7.1330    0.3479   -1.5935 H       1  UNL1        0.0000
     42 H           3.8952   -0.0542   -3.0012 H       1  UNL1        0.0000
     43 H          -0.5733   -0.5501   -3.5381 H       1  UNL1        0.0000
@<TRIPOS>BOND
     1     1     2    1
     2     2     3    2
     3     3     4    1
     4     4     5   ar
     5     5     6   ar
     6     6     7   ar
     7     7     8   ar
     8     8     9    1
     9     9    10    2
    10    10    11    1
    11    11    12   ar
    12    12    13    1
    13    12    14   ar
    14    14    15   ar
    15    15    16   ar
    16    16    17   ar
    17    17    18   ar
    18    18    19   ar
    19    19    20   ar
    20    20    21   ar
    21    21    22   ar
    22    22    23   ar
    23    23    24   ar
    24    24    25   ar
    25    25    26   ar
    26    26    27   ar
    27    27    28   ar
    28     5     1    1
    29    13     9    1
    30    23    14   ar
    31    28    24   ar
    32     8     4   ar
    33    28    11   ar
    34    22    17   ar
    35     1    29    1
    36     1    30    1
    37     2    31    1
    38     3    32    1
    39     6    33    1
    40    10    34    1
    41    13    35    1
    42    13    36    1
    43    15    37    1
    44    16    38    1
    45    18    39    1
    46    19    40    1
    47    20    41    1
    48    25    42    1
    49    27    43    1
