@<TRIPOS>MOLECULE
*****
 47 54 0 0 0
SMALL
GASTEIGER

@<TRIPOS>ATOM
      1 C           6.8359    1.2665    0.5319 C.3     1  UNL1       -0.0081
      2 C           5.6882    2.2718    0.6166 C.2     1  UNL1       -0.0791
      3 C           4.4889    1.6615    0.4828 C.2     1  UNL1       -0.0569
      4 C           4.6795    0.2628    0.3038 C.ar    1  UNL1       -0.0074
      5 C           6.0731    0.0029    0.3295 C.ar    1  UNL1       -0.0289
      6 C           6.3646   -1.3195    0.1652 C.ar    1  UNL1       -0.0197
      7 S           4.9170   -2.2296   -0.0192 S.2     1  UNL1       -0.0961
      8 C           3.8687   -0.8331    0.1214 C.ar    1  UNL1        0.0231
      9 C           2.4390   -0.9240    0.0480 C.2     1  UNL1       -0.0282
     10 C           1.7873   -2.0876   -0.1565 C.2     1  UNL1       -0.0491
     11 C           0.3817   -1.7872   -0.1645 C.ar    1  UNL1       -0.0099
     12 C           0.0975   -0.4318    0.0293 C.ar    1  UNL1       -0.0269
     13 C           1.4425    0.2353    0.1764 C.3     1  UNL1       -0.0002
     14 C          -1.2516    0.1238    0.0576 C.ar    1  UNL1       -0.0043
     15 C          -1.5994    1.5036    0.2041 C.ar    1  UNL1       -0.0023
     16 C          -0.6876    2.5303    0.3272 C.ar    1  UNL1       -0.0160
     17 S          -1.4193    4.0730    0.4633 S.2     1  UNL1       -0.1038
     18 C          -2.9831    3.3945    0.3652 C.ar    1  UNL1       -0.0160
     19 C          -2.9534    2.0219    0.2299 C.ar    1  UNL1       -0.0026
     20 C          -4.1331    1.2347    0.1544 C.ar    1  UNL1       -0.0091
     21 C          -5.4552    1.7593    0.2131 C.ar    1  UNL1       -0.0534
     22 C          -6.5543    0.9138    0.1998 C.ar    1  UNL1       -0.0611
     23 C          -6.3472   -0.4522    0.1534 C.ar    1  UNL1       -0.0611
     24 C          -5.0438   -0.9679    0.0861 C.ar    1  UNL1       -0.0534
     25 C          -3.8753   -0.1657    0.0383 C.ar    1  UNL1       -0.0089
     26 C          -2.4819   -0.6962   -0.0776 C.ar    1  UNL1        0.0015
     27 C          -2.0831   -2.0603   -0.3449 C.ar    1  UNL1        0.0287
     28 C          -2.8406   -3.1483   -0.7178 C.ar    1  UNL1        0.1000
     29 O          -2.0607   -4.2597   -0.8862 O.2     1  UNL1       -0.4698
     30 C          -0.7698   -3.8882   -0.6696 C.ar    1  UNL1        0.1000
     31 C          -0.7348   -2.5546   -0.3720 C.ar    1  UNL1        0.0279
     32 H           7.4874    1.4896   -0.3175 H       1  UNL1        0.0356
     33 H           7.4101    1.2513    1.4623 H       1  UNL1        0.0356
     34 H           5.8350    3.3314    0.7648 H       1  UNL1        0.0575
     35 H           3.5340    2.1645    0.5086 H       1  UNL1        0.0621
     36 H           7.3291   -1.8067    0.1420 H       1  UNL1        0.0696
     37 H           2.1906   -3.0776   -0.2912 H       1  UNL1        0.0627
     38 H           1.5369    0.7026    1.1616 H       1  UNL1        0.0362
     39 H           1.6099    0.9507   -0.6347 H       1  UNL1        0.0362
     40 H           0.3872    2.5142    0.3468 H       1  UNL1        0.0700
     41 H          -3.8305    4.0617    0.4188 H       1  UNL1        0.0700
     42 H          -5.6366    2.8274    0.2820 H       1  UNL1        0.0624
     43 H          -7.5612    1.3176    0.2519 H       1  UNL1        0.0618
     44 H          -7.1953   -1.1323    0.1828 H       1  UNL1        0.0618
     45 H          -4.9764   -2.0467    0.1258 H       1  UNL1        0.0624
     46 H          -3.8805   -3.3315   -0.9344 H       1  UNL1        0.1036
     47 H          -0.0297   -4.6660   -0.7926 H       1  UNL1        0.1036
@<TRIPOS>BOND
     1     1     2    1
     2     2     3    2
     3     3     4    1
     4     4     5   ar
     5     5     6   ar
     6     6     7   ar
     7     7     8   ar
     8     8     9    1
     9     9    10    2
    10    10    11    1
    11    11    12   ar
    12    12    13    1
    13    12    14   ar
    14    14    15   ar
    15    15    16   ar
    16    16    17   ar
    17    17    18   ar
    18    18    19   ar
    19    19    20   ar
    20    20    21   ar
    21    21    22   ar
    22    22    23   ar
    23    23    24   ar
    24    24    25   ar
    25    25    26   ar
    26    26    27   ar
    27    27    28   ar
    28    28    29   ar
    29    29    30   ar
    30    30    31   ar
    31     5     1    1
    32    13     9    1
    33    26    14   ar
    34    31    27   ar
    35     8     4   ar
    36    31    11   ar
    37    19    15   ar
    38    25    20   ar
    39     1    32    1
    40     1    33    1
    41     2    34    1
    42     3    35    1
    43     6    36    1
    44    10    37    1
    45    13    38    1
    46    13    39    1
    47    16    40    1
    48    18    41    1
    49    21    42    1
    50    22    43    1
    51    23    44    1
    52    24    45    1
    53    28    46    1
    54    30    47    1
