@<TRIPOS>MOLECULE
*****
 35 39 0 0 0
SMALL
GASTEIGER

@<TRIPOS>ATOM
      1 C           5.7223    0.2061    0.1257 C.3     1  UNL1       -0.0081
      2 C           5.1622   -1.1826   -0.1793 C.2     1  UNL1       -0.0791
      3 C           3.8099   -1.1752   -0.1926 C.2     1  UNL1       -0.0569
      4 C           3.3346    0.1370    0.0845 C.ar    1  UNL1       -0.0074
      5 C           4.4583    0.9795    0.2782 C.ar    1  UNL1       -0.0289
      6 C           4.1073    2.2689    0.5518 C.ar    1  UNL1       -0.0197
      7 S           2.3950    2.4293    0.5675 S.2     1  UNL1       -0.0961
      8 C           2.1044    0.7410    0.2009 C.ar    1  UNL1        0.0231
      9 C           0.7875    0.1886    0.0674 C.2     1  UNL1       -0.0282
     10 C          -0.3375    0.9217    0.2124 C.2     1  UNL1       -0.0492
     11 C          -1.5106    0.0726    0.0166 C.ar    1  UNL1       -0.0135
     12 C          -1.0621   -1.2245   -0.2572 C.ar    1  UNL1       -0.0353
     13 C           0.4336   -1.2591   -0.2478 C.3     1  UNL1       -0.0008
     14 C          -1.9441   -2.2626   -0.4905 C.ar    1  UNL1       -0.0571
     15 C          -3.3114   -1.9843   -0.4461 C.ar    1  UNL1       -0.0537
     16 C          -3.7919   -0.6839   -0.1719 C.ar    1  UNL1       -0.0173
     17 C          -5.1710   -0.4224   -0.1313 C.ar    1  UNL1       -0.0540
     18 C          -5.6518    0.8598    0.1390 C.ar    1  UNL1       -0.0612
     19 C          -4.7609    1.9015    0.3731 C.ar    1  UNL1       -0.0611
     20 C          -3.3860    1.6638    0.3376 C.ar    1  UNL1       -0.0535
     21 C          -2.8790    0.3756    0.0663 C.ar    1  UNL1       -0.0105
     22 H           6.3077    0.1959    1.0493 H       1  UNL1        0.0356
     23 H           6.3270    0.5739   -0.7078 H       1  UNL1        0.0356
     24 H           5.7820   -2.0484   -0.3587 H       1  UNL1        0.0575
     25 H           3.1882   -2.0368   -0.3848 H       1  UNL1        0.0621
     26 H           4.7428    3.1222    0.7424 H       1  UNL1        0.0696
     27 H          -0.4165    1.9729    0.4375 H       1  UNL1        0.0627
     28 H           0.7992   -1.9326    0.5337 H       1  UNL1        0.0362
     29 H           0.8190   -1.5536   -1.2290 H       1  UNL1        0.0362
     30 H          -1.5902   -3.2661   -0.7022 H       1  UNL1        0.0621
     31 H          -4.0141   -2.7953   -0.6284 H       1  UNL1        0.0624
     32 H          -5.8867   -1.2216   -0.3113 H       1  UNL1        0.0624
     33 H          -6.7227    1.0432    0.1663 H       1  UNL1        0.0618
     34 H          -5.1334    2.9005    0.5837 H       1  UNL1        0.0618
     35 H          -2.7112    2.4952    0.5240 H       1  UNL1        0.0624
@<TRIPOS>BOND
     1     1     2    1
     2     2     3    2
     3     3     4    1
     4     4     5   ar
     5     5     6   ar
     6     6     7   ar
     7     7     8   ar
     8     8     9    1
     9     9    10    2
    10    10    11    1
    11    11    12   ar
    12    12    13    1
    13    12    14   ar
    14    14    15   ar
    15    15    16   ar
    16    16    17   ar
    17    17    18   ar
    18    18    19   ar
    19    19    20   ar
    20    20    21   ar
    21     5     1    1
    22    13     9    1
    23    21    16   ar
    24     8     4   ar
    25    21    11   ar
    26     1    22    1
    27     1    23    1
    28     2    24    1
    29     3    25    1
    30     6    26    1
    31    10    27    1
    32    13    28    1
    33    13    29    1
    34    14    30    1
    35    15    31    1
    36    17    32    1
    37    18    33    1
    38    19    34    1
    39    20    35    1
