@<TRIPOS>MOLECULE
*****
 44 50 0 0 0
SMALL
GASTEIGER

@<TRIPOS>ATOM
      1 C           7.8239   -0.4950   -0.1046 C.3     1  UNL1        0.0000
      2 C           7.1523   -0.2842    1.2545 C.2     1  UNL1        0.0000
      3 C           5.8265   -0.0544    1.1174 C.2     1  UNL1        0.0000
      4 C           5.4818   -0.0816   -0.2609 C.ar    1  UNL1        0.0000
      5 C           6.6512   -0.3468   -1.0125 C.ar    1  UNL1        0.0000
      6 C           6.4089   -0.3997   -2.3552 C.ar    1  UNL1        0.0000
      7 S           4.7373   -0.1197   -2.6736 S.2     1  UNL1        0.0000
      8 C           4.3282    0.0705   -0.9873 C.ar    1  UNL1        0.0000
      9 C           3.0059    0.3599   -0.5749 C.2     1  UNL1        0.0000
     10 C           2.6760    1.3174    0.3228 C.2     1  UNL1        0.0000
     11 C           1.2749    1.3460    0.5767 C.ar    1  UNL1        0.0000
     12 S           0.4242    2.3716    1.6139 S.2     1  UNL1        0.0000
     13 C          -1.0936    1.6204    1.2100 C.ar    1  UNL1        0.0000
     14 C          -2.3602    1.9590    1.7156 C.ar    1  UNL1        0.0000
     15 C          -3.4977    1.2527    1.2883 C.ar    1  UNL1        0.0000
     16 C          -4.7446    1.6100    1.8070 C.ar    1  UNL1        0.0000
     17 C          -5.9017    0.9426    1.4169 C.ar    1  UNL1        0.0000
     18 C          -5.8457   -0.1038    0.4948 C.ar    1  UNL1        0.0000
     19 C          -7.0319   -0.7582    0.1208 C.ar    1  UNL1        0.0000
     20 C          -7.0167   -1.8056   -0.7958 C.ar    1  UNL1        0.0000
     21 C          -5.8123   -2.2105   -1.3493 C.ar    1  UNL1        0.0000
     22 C          -4.6256   -1.5667   -0.9846 C.ar    1  UNL1        0.0000
     23 C          -4.5979   -0.4957   -0.0545 C.ar    1  UNL1        0.0000
     24 C          -3.4003    0.1978    0.3518 C.ar    1  UNL1        0.0000
     25 C          -2.1023   -0.1120   -0.1340 C.ar    1  UNL1        0.0000
     26 C          -0.9419    0.5854    0.2819 C.ar    1  UNL1        0.0000
     27 C           0.4187    0.4674   -0.0466 C.ar    1  UNL1        0.0000
     28 SI          1.4702   -0.6211   -1.1708 Si      1  UNL1        0.0000
     29 H           8.2656   -1.4931   -0.1696 H       1  UNL1        0.0000
     30 H           8.5807    0.2727   -0.2879 H       1  UNL1        0.0000
     31 H           7.6835   -0.3218    2.1939 H       1  UNL1        0.0000
     32 H           5.1290    0.1176    1.9250 H       1  UNL1        0.0000
     33 H           7.1003   -0.5818   -3.1659 H       1  UNL1        0.0000
     34 H           3.3740    1.9920    0.8030 H       1  UNL1        0.0000
     35 H          -2.4468    2.7687    2.4360 H       1  UNL1        0.0000
     36 H          -4.8325    2.4203    2.5284 H       1  UNL1        0.0000
     37 H          -6.8522    1.2532    1.8456 H       1  UNL1        0.0000
     38 H          -7.9863   -0.4530    0.5455 H       1  UNL1        0.0000
     39 H          -7.9425   -2.3011   -1.0745 H       1  UNL1        0.0000
     40 H          -5.7884   -3.0272   -2.0662 H       1  UNL1        0.0000
     41 H          -3.7120   -1.9252   -1.4496 H       1  UNL1        0.0000
     42 H          -1.9659   -0.9113   -0.8545 H       1  UNL1        0.0000
     43 H           1.1792   -0.4139   -2.6134 H       1  UNL1        0.0000
     44 H           1.5067   -2.0420   -0.7363 H       1  UNL1        0.0000
@<TRIPOS>BOND
     1     1     2    1
     2     2     3    2
     3     3     4    1
     4     4     5   ar
     5     5     6   ar
     6     6     7   ar
     7     7     8   ar
     8     8     9    1
     9     9    10    2
    10    10    11    1
    11    11    12   ar
    12    12    13   ar
    13    13    14   ar
    14    14    15   ar
    15    15    16   ar
    16    16    17   ar
    17    17    18   ar
    18    18    19   ar
    19    19    20   ar
    20    20    21   ar
    21    21    22   ar
    22    22    23   ar
    23    23    24   ar
    24    24    25   ar
    25    25    26   ar
    26    26    27   ar
    27    27    28    1
    28     5     1    1
    29    28     9    1
    30     8     4   ar
    31    27    11   ar
    32    26    13   ar
    33    24    15   ar
    34    23    18   ar
    35     1    29    1
    36     1    30    1
    37     2    31    1
    38     3    32    1
    39     6    33    1
    40    10    34    1
    41    14    35    1
    42    16    36    1
    43    17    37    1
    44    19    38    1
    45    20    39    1
    46    21    40    1
    47    22    41    1
    48    25    42    1
    49    28    43    1
    50    28    44    1
