@<TRIPOS>MOLECULE
*****
 50 57 0 0 0
SMALL
GASTEIGER

@<TRIPOS>ATOM
      1 C           6.9508   -0.7496    1.2670 C.3     1  UNL1        0.0000
      2 C           5.9506   -0.5905    2.4163 C.2     1  UNL1        0.0000
      3 C           4.6977   -0.3799    1.9522 C.2     1  UNL1        0.0000
      4 C           4.7179   -0.3741    0.5328 C.ar    1  UNL1        0.0000
      5 C           6.0447   -0.5915    0.0940 C.ar    1  UNL1        0.0000
      6 C           6.1496   -0.5973   -1.2685 C.ar    1  UNL1        0.0000
      7 S           4.6038   -0.3295   -1.9929 S.2     1  UNL1        0.0000
      8 C           3.7860   -0.2156   -0.4577 C.ar    1  UNL1        0.0000
      9 C           2.3789    0.0360   -0.3803 C.ar    1  UNL1        0.0000
     10 C           1.5509   -0.9544   -0.7970 C.ar    1  UNL1        0.0000
     11 C           0.1543   -0.7457   -0.6588 C.ar    1  UNL1        0.0000
     12 N          -0.7598   -1.6472   -1.1026 N.ar    1  UNL1        0.0000
     13 C          -2.0302   -1.2145   -0.7832 C.ar    1  UNL1        0.0000
     14 C          -3.2745   -1.7689   -1.0758 C.ar    1  UNL1        0.0000
     15 SI         -3.6349   -3.2677   -2.0993 Si      1  UNL1        0.0000
     16 C          -5.4508   -2.9667   -1.7941 C.2     1  UNL1        0.0000
     17 C          -5.6796   -1.8872   -1.0236 C.2     1  UNL1        0.0000
     18 C          -4.4561   -1.1697   -0.5822 C.ar    1  UNL1        0.0000
     19 C          -4.3914   -0.0533    0.2671 C.ar    1  UNL1        0.0000
     20 C          -5.5375    0.5362    0.8495 C.ar    1  UNL1        0.0000
     21 C          -5.4386    1.5908    1.7576 C.ar    1  UNL1        0.0000
     22 C          -4.1899    2.0667    2.1254 C.ar    1  UNL1        0.0000
     23 C          -3.0421    1.5161    1.5543 C.ar    1  UNL1        0.0000
     24 C          -3.1112    0.4928    0.5844 C.ar    1  UNL1        0.0000
     25 C          -1.9118   -0.0307   -0.0258 C.ar    1  UNL1        0.0000
     26 C          -0.5222    0.3289   -0.1112 C.ar    1  UNL1        0.0000
     27 C           0.2852    1.4671    0.2286 C.ar    1  UNL1        0.0000
     28 C          -0.0976    2.7301    0.4964 C.2     1  UNL1        0.0000
     29 SI          1.3642    3.8387    0.8225 Si      1  UNL1        0.0000
     30 C           2.4815    2.4069    0.4241 C.2     1  UNL1        0.0000
     31 C           1.7763    1.2952    0.1212 C.ar    1  UNL1        0.0000
     32 H           7.7117    0.0349    1.3025 H       1  UNL1        0.0000
     33 H           7.4169   -1.7385    1.2913 H       1  UNL1        0.0000
     34 H           6.2270   -0.6431    3.4588 H       1  UNL1        0.0000
     35 H           3.8112   -0.2366    2.5544 H       1  UNL1        0.0000
     36 H           7.0268   -0.7362   -1.8845 H       1  UNL1        0.0000
     37 H           1.9315   -1.8960   -1.1809 H       1  UNL1        0.0000
     38 H          -0.5457   -2.5033   -1.5935 H       1  UNL1        0.0000
     39 H          -3.2551   -3.1063   -3.5250 H       1  UNL1        0.0000
     40 H          -3.1436   -4.5235   -1.4785 H       1  UNL1        0.0000
     41 H          -6.2026   -3.6173   -2.2137 H       1  UNL1        0.0000
     42 H          -6.6706   -1.5599   -0.7438 H       1  UNL1        0.0000
     43 H          -6.5320    0.1659    0.6174 H       1  UNL1        0.0000
     44 H          -6.3368    2.0156    2.1973 H       1  UNL1        0.0000
     45 H          -4.1022    2.8559    2.8671 H       1  UNL1        0.0000
     46 H          -2.0834    1.8600    1.9240 H       1  UNL1        0.0000
     47 H          -1.0948    3.1341    0.4968 H       1  UNL1        0.0000
     48 H           1.4518    4.2492    2.2449 H       1  UNL1        0.0000
     49 H           1.4734    4.9414   -0.1625 H       1  UNL1        0.0000
     50 H           3.5521    2.5321    0.3814 H       1  UNL1        0.0000
@<TRIPOS>BOND
     1     1     2    1
     2     2     3    2
     3     3     4    1
     4     4     5   ar
     5     5     6   ar
     6     6     7   ar
     7     7     8   ar
     8     8     9    1
     9     9    10   ar
    10    10    11   ar
    11    11    12   ar
    12    12    13   ar
    13    13    14   ar
    14    14    15    1
    15    15    16    1
    16    16    17    2
    17    17    18    1
    18    18    19   ar
    19    19    20   ar
    20    20    21   ar
    21    21    22   ar
    22    22    23   ar
    23    23    24   ar
    24    24    25   ar
    25    25    26   ar
    26    26    27   ar
    27    27    28    2
    28    28    29    1
    29    29    30    1
    30    30    31    2
    31     5     1    1
    32    31     9   ar
    33     8     4   ar
    34    26    11   ar
    35    31    27   ar
    36    25    13   ar
    37    18    14   ar
    38    24    19   ar
    39     1    32    1
    40     1    33    1
    41     2    34    1
    42     3    35    1
    43     6    36    1
    44    10    37    1
    45    12    38    1
    46    15    39    1
    47    15    40    1
    48    16    41    1
    49    17    42    1
    50    20    43    1
    51    21    44    1
    52    22    45    1
    53    23    46    1
    54    28    47    1
    55    29    48    1
    56    29    49    1
    57    30    50    1
