@<TRIPOS>MOLECULE
*****
 43 50 0 0 0
SMALL
GASTEIGER

@<TRIPOS>ATOM
      1 C           6.6786   -0.0336    0.8158 C.3     1  UNL1       -0.0081
      2 C           5.8519    1.1857    1.2357 C.2     1  UNL1       -0.0791
      3 C           4.5380    1.0054    0.9691 C.2     1  UNL1       -0.0568
      4 C           4.3504   -0.2706    0.3767 C.ar    1  UNL1       -0.0070
      5 C           5.6056   -0.9161    0.2756 C.ar    1  UNL1       -0.0289
      6 C           5.5099   -2.1624   -0.2783 C.ar    1  UNL1       -0.0197
      7 S           3.8640   -2.5237   -0.6647 S.2     1  UNL1       -0.0958
      8 C           3.2887   -0.9922   -0.0922 C.ar    1  UNL1        0.0275
      9 C           1.8760   -0.6716   -0.1667 C.ar    1  UNL1        0.0020
     10 C           0.8639   -1.4159    0.4751 C.ar    1  UNL1       -0.0288
     11 C          -0.5006   -1.0341    0.3719 C.ar    1  UNL1        0.0489
     12 N          -1.6315   -1.6566    0.8787 N.ar    1  UNL1       -0.3512
     13 C          -2.7341   -0.9300    0.5435 C.ar    1  UNL1        0.0915
     14 C          -4.2057   -1.2226    0.8472 C.ar    1  UNL1        0.1592
     15 O          -4.7719   -2.2806    1.4836 O.2     1  UNL1       -0.4608
     16 C          -6.1226   -2.0429    1.4779 C.ar    1  UNL1        0.0932
     17 C          -6.4257   -0.8445    0.8525 C.ar    1  UNL1       -0.0155
     18 C          -5.1848   -0.3507    0.4627 C.ar    1  UNL1        0.0304
     19 C          -4.7606    0.8396   -0.1871 C.ar    1  UNL1        0.0006
     20 C          -5.6349    1.8230   -0.5605 C.ar    1  UNL1       -0.0159
     21 S          -4.7584    3.1577   -1.2145 S.2     1  UNL1       -0.1038
     22 C          -3.2297    2.3806   -0.9678 C.ar    1  UNL1       -0.0159
     23 C          -3.3969    1.1198   -0.4662 C.ar    1  UNL1       -0.0003
     24 C          -2.3405    0.1951   -0.1469 C.ar    1  UNL1        0.0199
     25 C          -0.9678    0.0921   -0.3214 C.ar    1  UNL1        0.0189
     26 C           0.0287    0.8154   -1.0464 C.ar    1  UNL1        0.0302
     27 C          -0.0332    1.8242   -1.9568 C.ar    1  UNL1        0.1001
     28 O           1.2436    2.1119   -2.3675 O.2     1  UNL1       -0.4698
     29 C           2.0852    1.2393   -1.7321 C.ar    1  UNL1        0.1000
     30 C           1.3709    0.3956   -0.9112 C.ar    1  UNL1        0.0288
     31 H           7.4085    0.2372    0.0478 H       1  UNL1        0.0356
     32 H           7.1776   -0.4812    1.6797 H       1  UNL1        0.0356
     33 H           6.2793    2.0678    1.6888 H       1  UNL1        0.0575
     34 H           3.7467    1.7133    1.1734 H       1  UNL1        0.0621
     35 H           6.2910   -2.8823   -0.4782 H       1  UNL1        0.0696
     36 H           1.1323   -2.2956    1.0571 H       1  UNL1        0.0645
     37 H          -1.6398   -2.5191    1.4060 H       1  UNL1        0.1660
     38 H          -6.7226   -2.8062    1.9543 H       1  UNL1        0.1030
     39 H          -7.4104   -0.4211    0.7231 H       1  UNL1        0.0655
     40 H          -6.7116    1.8667   -0.4761 H       1  UNL1        0.0700
     41 H          -2.3385    2.9425   -1.1798 H       1  UNL1        0.0700
     42 H          -0.7983    2.4030   -2.4462 H       1  UNL1        0.1036
     43 H           3.1295    1.3375   -1.9949 H       1  UNL1        0.1036
@<TRIPOS>BOND
     1     1     2    1
     2     2     3    2
     3     3     4    1
     4     4     5   ar
     5     5     6   ar
     6     6     7   ar
     7     7     8   ar
     8     8     9    1
     9     9    10   ar
    10    10    11   ar
    11    11    12   ar
    12    12    13   ar
    13    13    14   ar
    14    14    15   ar
    15    15    16   ar
    16    16    17   ar
    17    17    18   ar
    18    18    19   ar
    19    19    20   ar
    20    20    21   ar
    21    21    22   ar
    22    22    23   ar
    23    23    24   ar
    24    24    25   ar
    25    25    26   ar
    26    26    27   ar
    27    27    28   ar
    28    28    29   ar
    29    29    30   ar
    30     5     1    1
    31    30     9   ar
    32     8     4   ar
    33    25    11   ar
    34    30    26   ar
    35    24    13   ar
    36    18    14   ar
    37    23    19   ar
    38     1    31    1
    39     1    32    1
    40     2    33    1
    41     3    34    1
    42     6    35    1
    43    10    36    1
    44    12    37    1
    45    16    38    1
    46    17    39    1
    47    20    40    1
    48    22    41    1
    49    27    42    1
    50    29    43    1
