@<TRIPOS>MOLECULE
*****
 37 42 0 0 0
SMALL
GASTEIGER

@<TRIPOS>ATOM
      1 C           6.0526   -0.2486    1.4525 C.3     1  UNL1       -0.0081
      2 C           4.8517   -0.2571    2.4008 C.2     1  UNL1       -0.0791
      3 C           3.6988   -0.0103    1.7378 C.2     1  UNL1       -0.0568
      4 C           3.9762    0.1748    0.3563 C.ar    1  UNL1       -0.0057
      5 C           5.3745    0.0493    0.1595 C.ar    1  UNL1       -0.0288
      6 C           5.7420    0.2411   -1.1428 C.ar    1  UNL1       -0.0196
      7 S           4.3551    0.5802   -2.1128 S.2     1  UNL1       -0.0943
      8 C           3.2562    0.4476   -0.7757 C.ar    1  UNL1        0.0429
      9 C           1.8388    0.6090   -0.9505 C.ar    1  UNL1        0.0562
     10 C           1.1486    1.4032   -1.8568 C.ar    1  UNL1       -0.0119
     11 C          -0.2211    1.1713   -1.5864 C.ar    1  UNL1        0.0659
     12 N          -1.4775    1.5315   -1.9863 N.ar    1  UNL1       -0.3529
     13 C          -2.3909    0.8472   -1.2101 C.ar    1  UNL1        0.0496
     14 C          -3.7892    0.8786   -1.2384 C.ar    1  UNL1       -0.0285
     15 C          -4.4891    0.0679   -0.3224 C.ar    1  UNL1        0.0024
     16 C          -5.8895    0.0545   -0.3001 C.ar    1  UNL1       -0.0511
     17 C          -6.5628   -0.7511    0.6098 C.ar    1  UNL1       -0.0430
     18 C          -5.8085   -1.5212    1.4726 C.ar    1  UNL1        0.0283
     19 N          -4.4580   -1.5366    1.4832 N.ar    1  UNL1       -0.2550
     20 C          -3.8085   -0.7560    0.6008 C.ar    1  UNL1        0.0717
     21 C          -2.4194   -0.7620    0.5998 C.ar    1  UNL1       -0.0246
     22 C          -1.7006    0.0384   -0.3035 C.ar    1  UNL1        0.0256
     23 C          -0.3295    0.2758   -0.5764 C.ar    1  UNL1        0.0726
     24 N           0.9285   -0.0849   -0.1819 N.ar    1  UNL1       -0.3520
     25 H           6.7619    0.5359    1.7303 H       1  UNL1        0.0356
     26 H           6.5451   -1.2247    1.4393 H       1  UNL1        0.0356
     27 H           4.9348   -0.4244    3.4644 H       1  UNL1        0.0575
     28 H           2.7207    0.0599    2.1910 H       1  UNL1        0.0621
     29 H           6.7277    0.2117   -1.5852 H       1  UNL1        0.0696
     30 H           1.5775    2.0607   -2.6005 H       1  UNL1        0.0660
     31 H          -1.6665    2.1907   -2.7295 H       1  UNL1        0.1660
     32 H          -4.3155    1.5105   -1.9472 H       1  UNL1        0.0645
     33 H          -6.4612    0.6700   -0.9898 H       1  UNL1        0.0625
     34 H          -7.6457   -0.7767    0.6439 H       1  UNL1        0.0633
     35 H          -6.2822   -2.1694    2.2043 H       1  UNL1        0.0830
     36 H          -1.8941   -1.3950    1.3082 H       1  UNL1        0.0646
     37 H           1.1191   -0.7650    0.5417 H       1  UNL1        0.1660
@<TRIPOS>BOND
     1     1     2    1
     2     2     3    2
     3     3     4    1
     4     4     5   ar
     5     5     6   ar
     6     6     7   ar
     7     7     8   ar
     8     8     9    1
     9     9    10   ar
    10    10    11   ar
    11    11    12   ar
    12    12    13   ar
    13    13    14   ar
    14    14    15   ar
    15    15    16   ar
    16    16    17   ar
    17    17    18   ar
    18    18    19   ar
    19    19    20   ar
    20    20    21   ar
    21    21    22   ar
    22    22    23   ar
    23    23    24   ar
    24     5     1    1
    25    24     9   ar
    26     8     4   ar
    27    23    11   ar
    28    22    13   ar
    29    20    15   ar
    30     1    25    1
    31     1    26    1
    32     2    27    1
    33     3    28    1
    34     6    29    1
    35    10    30    1
    36    12    31    1
    37    14    32    1
    38    16    33    1
    39    17    34    1
    40    18    35    1
    41    21    36    1
    42    24    37    1
