@<TRIPOS>MOLECULE
*****
 49 56 0 0 0
SMALL
GASTEIGER

@<TRIPOS>ATOM
      1 C           7.1191    0.1653    0.8182 C.3     1  UNL1        0.0000
      2 C           6.6570    1.2574   -0.1468 C.2     1  UNL1        0.0000
      3 C           5.3114    1.2553   -0.2839 C.2     1  UNL1        0.0000
      4 C           4.7508    0.2290    0.5236 C.ar    1  UNL1        0.0000
      5 C           5.8095   -0.4433    1.1866 C.ar    1  UNL1        0.0000
      6 C           5.3714   -1.4671    1.9781 C.ar    1  UNL1        0.0000
      7 S           3.6540   -1.5959    1.8926 S.2     1  UNL1        0.0000
      8 C           3.4986   -0.2536    0.7955 C.ar    1  UNL1        0.0000
      9 C           2.2130    0.1814    0.3221 C.ar    1  UNL1        0.0000
     10 C           1.8224    1.3758   -0.2606 C.ar    1  UNL1        0.0000
     11 C           0.4395    1.2795   -0.5117 C.ar    1  UNL1        0.0000
     12 C           0.0053    0.0240   -0.1471 C.ar    1  UNL1        0.0000
     13 N           1.0791   -0.6028    0.4263 N.ar    1  UNL1        0.0000
     14 C          -1.3272   -0.5193   -0.1798 C.ar    1  UNL1        0.0000
     15 C          -2.3397    0.3909   -0.4403 C.ar    1  UNL1        0.0000
     16 C          -3.7279   -0.0063   -0.0734 C.ar    1  UNL1        0.0000
     17 SI         -5.1483    1.1993    0.2734 Si      1  UNL1        0.0000
     18 C          -6.2073   -0.2387    0.8059 C.2     1  UNL1        0.0000
     19 C          -5.5088   -1.3840    0.7421 C.2     1  UNL1        0.0000
     20 C          -4.1165   -1.2598    0.2978 C.ar    1  UNL1        0.0000
     21 C          -3.1102   -2.3035    0.2865 C.ar    1  UNL1        0.0000
     22 C          -3.3454   -3.6216    0.4446 C.2     1  UNL1        0.0000
     23 SI         -1.7782   -4.6091    0.2904 Si      1  UNL1        0.0000
     24 C          -0.8683   -3.0036   -0.0132 C.2     1  UNL1        0.0000
     25 C          -1.6930   -1.9343    0.0558 C.ar    1  UNL1        0.0000
     26 C          -1.9410    1.7238   -1.0234 C.ar    1  UNL1        0.0000
     27 C          -2.7400    2.5636   -1.7203 C.2     1  UNL1        0.0000
     28 SI         -1.8332    4.0982   -2.2986 Si      1  UNL1        0.0000
     29 C          -0.2752    3.3797   -1.5992 C.2     1  UNL1        0.0000
     30 C          -0.5170    2.1842   -1.0309 C.ar    1  UNL1        0.0000
     31 H           7.7723   -0.5506    0.3119 H       1  UNL1        0.0000
     32 H           7.6246    0.5998    1.6850 H       1  UNL1        0.0000
     33 H           7.3325    1.9312   -0.6523 H       1  UNL1        0.0000
     34 H           4.7480    1.9223   -0.9194 H       1  UNL1        0.0000
     35 H           5.9451   -2.1461    2.5930 H       1  UNL1        0.0000
     36 H           2.4534    2.2327   -0.4461 H       1  UNL1        0.0000
     37 H           1.0611   -1.4960    0.8951 H       1  UNL1        0.0000
     38 H          -5.7194    1.8333   -0.9430 H       1  UNL1        0.0000
     39 H          -4.8763    2.1269    1.4001 H       1  UNL1        0.0000
     40 H          -7.2325   -0.1187    1.1170 H       1  UNL1        0.0000
     41 H          -5.9243   -2.3441    1.0200 H       1  UNL1        0.0000
     42 H          -4.2950   -4.1046    0.6073 H       1  UNL1        0.0000
     43 H          -1.3738   -5.2455    1.5670 H       1  UNL1        0.0000
     44 H          -1.7713   -5.4960   -0.8973 H       1  UNL1        0.0000
     45 H           0.1775   -3.0318   -0.2651 H       1  UNL1        0.0000
     46 H          -3.7709    2.4429   -1.9985 H       1  UNL1        0.0000
     47 H          -1.8054    4.2095   -3.7767 H       1  UNL1        0.0000
     48 H          -2.2828    5.3136   -1.5782 H       1  UNL1        0.0000
     49 H           0.6832    3.8569   -1.7235 H       1  UNL1        0.0000
@<TRIPOS>BOND
     1     1     2    1
     2     2     3    2
     3     3     4    1
     4     4     5   ar
     5     5     6   ar
     6     6     7   ar
     7     7     8   ar
     8     8     9    1
     9     9    10   ar
    10    10    11   ar
    11    11    12   ar
    12    12    13   ar
    13    12    14   ar
    14    14    15   ar
    15    15    16   ar
    16    16    17    1
    17    17    18    1
    18    18    19    2
    19    19    20    1
    20    20    21   ar
    21    21    22    2
    22    22    23    1
    23    23    24    1
    24    24    25    2
    25    15    26   ar
    26    26    27    2
    27    27    28    1
    28    28    29    1
    29    29    30    2
    30     5     1    1
    31    13     9   ar
    32    25    14   ar
    33    30    26   ar
    34     8     4   ar
    35    30    11   ar
    36    20    16   ar
    37    25    21   ar
    38     1    31    1
    39     1    32    1
    40     2    33    1
    41     3    34    1
    42     6    35    1
    43    10    36    1
    44    13    37    1
    45    17    38    1
    46    17    39    1
    47    18    40    1
    48    19    41    1
    49    22    42    1
    50    23    43    1
    51    23    44    1
    52    24    45    1
    53    27    46    1
    54    28    47    1
    55    28    48    1
    56    29    49    1
