@<TRIPOS>MOLECULE
*****
 42 49 0 0 0
SMALL
GASTEIGER

@<TRIPOS>ATOM
      1 SI          3.8803   -0.2343   -1.9025 Si      1  UNL1        0.0000
      2 C           3.2656    1.1369   -0.8142 C.2     1  UNL1        0.0000
      3 C           2.0347    0.8781   -0.3224 C.ar    1  UNL1        0.0000
      4 C           1.2881    1.7862    0.5702 C.ar    1  UNL1        0.0000
      5 C           0.0699    1.3919    1.0087 C.ar    1  UNL1        0.0000
      6 C          -0.4499    0.1266    0.5935 C.ar    1  UNL1        0.0000
      7 S          -1.9691   -0.4083    1.1187 S.2     1  UNL1        0.0000
      8 C          -1.8713   -1.8920    0.2406 C.ar    1  UNL1        0.0000
      9 C          -0.6552   -1.9724   -0.4620 C.ar    1  UNL1        0.0000
     10 C          -0.4405   -3.1298   -1.2255 C.ar    1  UNL1        0.0000
     11 N          -1.3461   -4.1333   -1.2944 N.ar    1  UNL1        0.0000
     12 C          -2.4949   -4.0601   -0.6307 C.ar    1  UNL1        0.0000
     13 C          -3.3726   -5.1468   -0.7611 C.ar    1  UNL1        0.0000
     14 C          -4.6295   -5.2500   -0.1376 C.ar    1  UNL1        0.0000
     15 C          -4.9981   -4.1572    0.6717 C.ar    1  UNL1        0.0000
     16 N          -6.1478   -4.0517    1.3536 N.ar    1  UNL1        0.0000
     17 S          -6.0943   -2.5929    2.1382 S.2     1  UNL1        0.0000
     18 N          -4.6150   -2.0364    1.6473 N.ar    1  UNL1        0.0000
     19 C          -4.0793   -2.9676    0.8373 C.ar    1  UNL1        0.0000
     20 C          -2.8179   -2.9395    0.1694 C.ar    1  UNL1        0.0000
     21 C           0.1596   -0.7949   -0.2444 C.ar    1  UNL1        0.0000
     22 C           1.4677   -0.4431   -0.7495 C.ar    1  UNL1        0.0000
     23 C           2.2809   -1.1456   -1.5630 C.2     1  UNL1        0.0000
     24 C           1.7429    3.0617    1.0047 C.ar    1  UNL1        0.0000
     25 S           2.1845    3.4636    2.6366 S.2     1  UNL1        0.0000
     26 C           2.5993    5.1079    2.2355 C.ar    1  UNL1        0.0000
     27 C           2.3926    5.2707    0.9118 C.ar    1  UNL1        0.0000
     28 C           2.4947    6.2527   -0.0856 C.ar    1  UNL1        0.0000
     29 C           2.0748    5.6170   -1.2616 C.ar    1  UNL1        0.0000
     30 O           1.7098    4.2936   -1.0934 O.2     1  UNL1        0.0000
     31 C           1.9297    4.1618    0.2452 C.ar    1  UNL1        0.0000
     32 H           5.0518   -0.9406   -1.3319 H       1  UNL1        0.0000
     33 H           4.0029    0.1632   -3.3250 H       1  UNL1        0.0000
     34 H           3.8671    2.0157   -0.6425 H       1  UNL1        0.0000
     35 H          -0.5307    2.0207    1.6609 H       1  UNL1        0.0000
     36 H           0.4533   -3.3031   -1.8092 H       1  UNL1        0.0000
     37 H          -3.0541   -5.9758   -1.3963 H       1  UNL1        0.0000
     38 H          -5.2728   -6.1112   -0.2694 H       1  UNL1        0.0000
     39 H           2.1360   -2.1093   -2.0116 H       1  UNL1        0.0000
     40 H           2.9525    5.7991    2.9873 H       1  UNL1        0.0000
     41 H           2.8190    7.2796    0.0009 H       1  UNL1        0.0000
     42 H           1.9810    5.9689   -2.2808 H       1  UNL1        0.0000
@<TRIPOS>BOND
     1     1     2    1
     2     2     3    2
     3     3     4   ar
     4     4     5   ar
     5     5     6   ar
     6     6     7   ar
     7     7     8   ar
     8     8     9   ar
     9     9    10   ar
    10    10    11   ar
    11    11    12   ar
    12    12    13   ar
    13    13    14   ar
    14    14    15   ar
    15    15    16   ar
    16    16    17   ar
    17    17    18   ar
    18    18    19   ar
    19    19    20   ar
    20     9    21   ar
    21    21    22   ar
    22    22    23    2
    23     4    24    1
    24    24    25   ar
    25    25    26   ar
    26    26    27   ar
    27    27    28   ar
    28    28    29   ar
    29    29    30   ar
    30    30    31   ar
    31    23     1    1
    32    31    24   ar
    33    22     3   ar
    34    31    27   ar
    35    21     6   ar
    36    20     8   ar
    37    20    12   ar
    38    19    15   ar
    39     1    32    1
    40     1    33    1
    41     2    34    1
    42     5    35    1
    43    10    36    1
    44    13    37    1
    45    14    38    1
    46    23    39    1
    47    26    40    1
    48    28    41    1
    49    29    42    1
