@<TRIPOS>MOLECULE
*****
 46 53 0 0 0
SMALL
GASTEIGER

@<TRIPOS>ATOM
      1 C          -6.8227    0.6004   -0.3072 C.3     1  UNL1        0.0000
      2 C          -6.0889   -0.0894   -1.4619 C.2     1  UNL1        0.0000
      3 C          -4.7677   -0.2160   -1.2004 C.2     1  UNL1        0.0000
      4 C          -4.4882    0.3367    0.0762 C.ar    1  UNL1        0.0000
      5 C          -5.6898    0.8338    0.6332 C.ar    1  UNL1        0.0000
      6 C          -5.5025    1.3924    1.8673 C.ar    1  UNL1        0.0000
      7 S          -3.8369    1.2988    2.3233 S.2     1  UNL1        0.0000
      8 C          -3.3795    0.4968    0.8580 C.ar    1  UNL1        0.0000
      9 C          -1.9957    0.1212    0.6385 C.ar    1  UNL1        0.0000
     10 C          -0.9563    1.0671    0.4554 C.ar    1  UNL1        0.0000
     11 C           0.4144    0.7231    0.2125 C.ar    1  UNL1        0.0000
     12 C           0.8536   -0.6471    0.1318 C.ar    1  UNL1        0.0000
     13 C          -0.1734   -1.5902    0.3166 C.ar    1  UNL1        0.0000
     14 C          -0.0218   -2.9575    0.2937 C.ar    1  UNL1        0.0000
     15 S          -1.5036   -3.7793    0.5731 S.2     1  UNL1        0.0000
     16 C          -2.3698   -2.3088    0.7333 C.ar    1  UNL1        0.0000
     17 C          -1.5549   -1.2125    0.5622 C.ar    1  UNL1        0.0000
     18 C           2.2569   -0.9030   -0.1212 C.ar    1  UNL1        0.0000
     19 O           2.7601   -2.1608   -0.2154 O.2     1  UNL1        0.0000
     20 C           4.0957   -2.0144   -0.4555 C.ar    1  UNL1        0.0000
     21 C           5.0218   -3.0350   -0.6245 C.ar    1  UNL1        0.0000
     22 C           6.3293   -2.6122   -0.8592 C.ar    1  UNL1        0.0000
     23 C           6.6135   -1.2495   -0.9078 C.ar    1  UNL1        0.0000
     24 N           5.7196   -0.2463   -0.7450 N.ar    1  UNL1        0.0000
     25 C           4.4467   -0.6659   -0.5160 C.ar    1  UNL1        0.0000
     26 C           3.2483    0.0418   -0.2983 C.ar    1  UNL1        0.0000
     27 C           2.9033    1.4215   -0.2332 C.ar    1  UNL1        0.0000
     28 C           3.7385    2.4672   -0.3799 C.2     1  UNL1        0.0000
     29 SI          2.8406    4.0832   -0.2126 Si      1  UNL1        0.0000
     30 C           1.2573    3.1159    0.0687 C.2     1  UNL1        0.0000
     31 C           1.4707    1.7822    0.0252 C.ar    1  UNL1        0.0000
     32 H          -7.2759    1.5383   -0.6397 H       1  UNL1        0.0000
     33 H          -7.5795   -0.0612    0.1230 H       1  UNL1        0.0000
     34 H          -6.5793   -0.4239   -2.3639 H       1  UNL1        0.0000
     35 H          -4.0317   -0.6647   -1.8531 H       1  UNL1        0.0000
     36 H          -6.2268    1.8490    2.5272 H       1  UNL1        0.0000
     37 H          -1.2373    2.1185    0.4976 H       1  UNL1        0.0000
     38 H           0.8679   -3.5486    0.1343 H       1  UNL1        0.0000
     39 H          -3.4298   -2.3430    0.9457 H       1  UNL1        0.0000
     40 H           4.7407   -4.0785   -0.5757 H       1  UNL1        0.0000
     41 H           7.1232   -3.3385   -1.0033 H       1  UNL1        0.0000
     42 H           7.6327   -0.9148   -1.0907 H       1  UNL1        0.0000
     43 H           4.8002    2.4213   -0.5702 H       1  UNL1        0.0000
     44 H           3.2427    4.8482    0.9919 H       1  UNL1        0.0000
     45 H           2.7979    4.8560   -1.4771 H       1  UNL1        0.0000
     46 H           0.3362    3.6477    0.2379 H       1  UNL1        0.0000
@<TRIPOS>BOND
     1     1     2    1
     2     2     3    2
     3     3     4    1
     4     4     5   ar
     5     5     6   ar
     6     6     7   ar
     7     7     8   ar
     8     8     9    1
     9     9    10   ar
    10    10    11   ar
    11    11    12   ar
    12    12    13   ar
    13    13    14   ar
    14    14    15   ar
    15    15    16   ar
    16    16    17   ar
    17    12    18   ar
    18    18    19   ar
    19    19    20   ar
    20    20    21   ar
    21    21    22   ar
    22    22    23   ar
    23    23    24   ar
    24    24    25   ar
    25    25    26   ar
    26    26    27   ar
    27    27    28    2
    28    28    29    1
    29    29    30    1
    30    30    31    2
    31     5     1    1
    32    17     9   ar
    33    26    18   ar
    34    31    27   ar
    35     8     4   ar
    36    31    11   ar
    37    17    13   ar
    38    25    20   ar
    39     1    32    1
    40     1    33    1
    41     2    34    1
    42     3    35    1
    43     6    36    1
    44    10    37    1
    45    14    38    1
    46    16    39    1
    47    21    40    1
    48    22    41    1
    49    23    42    1
    50    28    43    1
    51    29    44    1
    52    29    45    1
    53    30    46    1
