@<TRIPOS>MOLECULE
*****
 46 53 0 0 0
SMALL
GASTEIGER

@<TRIPOS>ATOM
      1 C          -6.8347    0.7151    0.7189 C.3     1  UNL1        0.0000
      2 C          -5.9064    1.8414    1.1853 C.2     1  UNL1        0.0000
      3 C          -4.6070    1.4742    1.1044 C.2     1  UNL1        0.0000
      4 C          -4.5258    0.1471    0.6092 C.ar    1  UNL1        0.0000
      5 C          -5.8344   -0.3328    0.3674 C.ar    1  UNL1        0.0000
      6 C          -5.8412   -1.6105   -0.1202 C.ar    1  UNL1        0.0000
      7 S          -4.2240   -2.2030   -0.2773 S.2     1  UNL1        0.0000
      8 C          -3.5244   -0.7365    0.3221 C.ar    1  UNL1        0.0000
      9 C          -2.0837   -0.6145    0.4386 C.ar    1  UNL1        0.0000
     10 C          -1.2228   -0.5556   -0.6750 C.ar    1  UNL1        0.0000
     11 C           0.2050   -0.4093   -0.5955 C.ar    1  UNL1        0.0000
     12 C           0.9181   -0.2947    0.6566 C.ar    1  UNL1        0.0000
     13 C           0.0492   -0.3714    1.7804 C.ar    1  UNL1        0.0000
     14 C           0.4005   -0.3319    3.1117 C.ar    1  UNL1        0.0000
     15 S          -0.9399   -0.4635    4.1779 S.2     1  UNL1        0.0000
     16 C          -2.0379   -0.5952    2.8783 C.ar    1  UNL1        0.0000
     17 C          -1.4009   -0.5242    1.6594 C.ar    1  UNL1        0.0000
     18 C           2.3894   -0.1180    0.6257 C.ar    1  UNL1        0.0000
     19 S           3.3887    0.0939    1.9897 S.2     1  UNL1        0.0000
     20 C           4.8228    0.2096    1.0745 C.ar    1  UNL1        0.0000
     21 C           6.1347    0.3921    1.5381 C.ar    1  UNL1        0.0000
     22 C           7.1449    0.4602    0.5878 C.ar    1  UNL1        0.0000
     23 C           6.8064    0.3470   -0.7460 C.ar    1  UNL1        0.0000
     24 N           5.5595    0.1724   -1.2194 N.ar    1  UNL1        0.0000
     25 C           4.5610    0.1023   -0.2894 C.ar    1  UNL1        0.0000
     26 C           3.1556   -0.0792   -0.5389 C.ar    1  UNL1        0.0000
     27 C           2.4990   -0.2137   -1.8121 C.ar    1  UNL1        0.0000
     28 C           3.0862   -0.2097   -3.0265 C.2     1  UNL1        0.0000
     29 SI          1.8638   -0.4061   -4.4026 Si      1  UNL1        0.0000
     30 C           0.5223   -0.4875   -3.1041 C.2     1  UNL1        0.0000
     31 C           1.0195   -0.3733   -1.8513 C.ar    1  UNL1        0.0000
     32 H          -7.4193    1.0282   -0.1505 H       1  UNL1        0.0000
     33 H          -7.4936    0.3935    1.5300 H       1  UNL1        0.0000
     34 H          -6.2612    2.8013    1.5299 H       1  UNL1        0.0000
     35 H          -3.7564    2.0862    1.3711 H       1  UNL1        0.0000
     36 H          -6.6818   -2.2316   -0.3958 H       1  UNL1        0.0000
     37 H          -1.6970   -0.6204   -1.6528 H       1  UNL1        0.0000
     38 H           1.3611   -0.2405    3.5865 H       1  UNL1        0.0000
     39 H          -3.0911   -0.7217    3.0900 H       1  UNL1        0.0000
     40 H           6.3508    0.4772    2.5979 H       1  UNL1        0.0000
     41 H           8.1786    0.6000    0.8850 H       1  UNL1        0.0000
     42 H           7.5771    0.3973   -1.5117 H       1  UNL1        0.0000
     43 H           4.1380   -0.1073   -3.2407 H       1  UNL1        0.0000
     44 H           2.0083   -1.6877   -5.1341 H       1  UNL1        0.0000
     45 H           1.7414    0.8032   -5.2519 H       1  UNL1        0.0000
     46 H          -0.4983   -0.6174   -3.4209 H       1  UNL1        0.0000
@<TRIPOS>BOND
     1     1     2    1
     2     2     3    2
     3     3     4    1
     4     4     5   ar
     5     5     6   ar
     6     6     7   ar
     7     7     8   ar
     8     8     9    1
     9     9    10   ar
    10    10    11   ar
    11    11    12   ar
    12    12    13   ar
    13    13    14   ar
    14    14    15   ar
    15    15    16   ar
    16    16    17   ar
    17    12    18   ar
    18    18    19   ar
    19    19    20   ar
    20    20    21   ar
    21    21    22   ar
    22    22    23   ar
    23    23    24   ar
    24    24    25   ar
    25    25    26   ar
    26    26    27   ar
    27    27    28    2
    28    28    29    1
    29    29    30    1
    30    30    31    2
    31     5     1    1
    32    17     9   ar
    33    26    18   ar
    34    31    27   ar
    35     8     4   ar
    36    31    11   ar
    37    17    13   ar
    38    25    20   ar
    39     1    32    1
    40     1    33    1
    41     2    34    1
    42     3    35    1
    43     6    36    1
    44    10    37    1
    45    14    38    1
    46    16    39    1
    47    21    40    1
    48    22    41    1
    49    23    42    1
    50    28    43    1
    51    29    44    1
    52    29    45    1
    53    30    46    1
