@<TRIPOS>MOLECULE
*****
 47 54 0 0 0
SMALL
GASTEIGER

@<TRIPOS>ATOM
      1 C           6.6052    1.2511   -0.2840 C.3     1  UNL1       -0.0081
      2 C           5.4231    2.1745   -0.5867 C.2     1  UNL1       -0.0791
      3 C           4.2442    1.5269   -0.4459 C.2     1  UNL1       -0.0567
      4 C           4.4855    0.1827   -0.0559 C.ar    1  UNL1       -0.0041
      5 C           5.8855   -0.0129    0.0427 C.ar    1  UNL1       -0.0288
      6 C           6.2126   -1.2904    0.4016 C.ar    1  UNL1       -0.0196
      7 S           4.7839   -2.2373    0.6107 S.2     1  UNL1       -0.0927
      8 C           3.7241   -0.9185    0.2254 C.ar    1  UNL1        0.0618
      9 C           2.2929   -1.0511    0.2312 C.ar    1  UNL1        0.1434
     10 C           1.5112   -2.1920    0.2734 C.ar    1  UNL1       -0.0069
     11 C           0.1429   -1.7889    0.2511 C.ar    1  UNL1        0.0291
     12 C           0.1609   -0.4067    0.2107 C.ar    1  UNL1        0.1446
     13 O           1.4533    0.0302    0.1965 O.2     1  UNL1       -0.4536
     14 C          -0.9927    0.3877    0.1553 C.ar    1  UNL1        0.0344
     15 C          -0.9980    1.7989    0.1915 C.ar    1  UNL1        0.0010
     16 C           0.1046    2.5904    0.4309 C.ar    1  UNL1       -0.0159
     17 S          -0.2716    4.2625    0.4247 S.2     1  UNL1       -0.1038
     18 C          -1.9260    3.9460    0.1161 C.ar    1  UNL1       -0.0160
     19 C          -2.1858    2.5958    0.0261 C.ar    1  UNL1       -0.0024
     20 C          -3.4650    2.0564   -0.2537 C.ar    1  UNL1       -0.0062
     21 C          -4.6255    2.8253   -0.5099 C.ar    1  UNL1       -0.0353
     22 C          -5.7758    2.1663   -0.8787 C.ar    1  UNL1        0.0282
     23 N          -5.8342    0.8371   -1.0392 N.ar    1  UNL1       -0.2626
     24 C          -4.6985    0.1322   -0.7730 C.ar    1  UNL1        0.0359
     25 C          -3.4682    0.6239   -0.2985 C.ar    1  UNL1        0.0092
     26 C          -2.2859   -0.2341    0.0365 C.ar    1  UNL1        0.0031
     27 C          -2.3150   -1.6739    0.2669 C.ar    1  UNL1       -0.0087
     28 C          -3.4868   -2.4281    0.5389 C.ar    1  UNL1       -0.0534
     29 C          -3.4916   -3.8205    0.7029 C.ar    1  UNL1       -0.0611
     30 C          -2.3067   -4.5321    0.6385 C.ar    1  UNL1       -0.0611
     31 C          -1.1141   -3.8440    0.4620 C.ar    1  UNL1       -0.0533
     32 C          -1.1097   -2.4377    0.3126 C.ar    1  UNL1       -0.0065
     33 H           7.2462    1.1388   -1.1628 H       1  UNL1        0.0356
     34 H           7.1820    1.6232    0.5672 H       1  UNL1        0.0356
     35 H           5.5333    3.2078   -0.8803 H       1  UNL1        0.0575
     36 H           3.2659    1.9543   -0.6126 H       1  UNL1        0.0621
     37 H           7.1898   -1.7279    0.5509 H       1  UNL1        0.0696
     38 H           1.8850   -3.2051    0.3154 H       1  UNL1        0.0662
     39 H           1.1262    2.3055    0.6306 H       1  UNL1        0.0700
     40 H          -2.6005    4.7843    0.0221 H       1  UNL1        0.0700
     41 H          -4.6316    3.9062   -0.4476 H       1  UNL1        0.0639
     42 H          -6.6946    2.7054   -1.0880 H       1  UNL1        0.0830
     43 H          -4.8179   -0.9142   -1.0390 H       1  UNL1        0.0836
     44 H          -4.4421   -1.9360    0.7016 H       1  UNL1        0.0624
     45 H          -4.4277   -4.3380    0.9000 H       1  UNL1        0.0618
     46 H          -2.3051   -5.6111    0.7652 H       1  UNL1        0.0618
     47 H          -0.1875   -4.4127    0.4664 H       1  UNL1        0.0624
@<TRIPOS>BOND
     1     1     2    1
     2     2     3    2
     3     3     4    1
     4     4     5   ar
     5     5     6   ar
     6     6     7   ar
     7     7     8   ar
     8     8     9    1
     9     9    10   ar
    10    10    11   ar
    11    11    12   ar
    12    12    13   ar
    13    12    14   ar
    14    14    15   ar
    15    15    16   ar
    16    16    17   ar
    17    17    18   ar
    18    18    19   ar
    19    19    20   ar
    20    20    21   ar
    21    21    22   ar
    22    22    23   ar
    23    23    24   ar
    24    24    25   ar
    25    25    26   ar
    26    26    27   ar
    27    27    28   ar
    28    28    29   ar
    29    29    30   ar
    30    30    31   ar
    31    31    32   ar
    32     5     1    1
    33    13     9   ar
    34    26    14   ar
    35    32    27   ar
    36     8     4   ar
    37    32    11   ar
    38    19    15   ar
    39    25    20   ar
    40     1    33    1
    41     1    34    1
    42     2    35    1
    43     3    36    1
    44     6    37    1
    45    10    38    1
    46    16    39    1
    47    18    40    1
    48    21    41    1
    49    22    42    1
    50    24    43    1
    51    28    44    1
    52    29    45    1
    53    30    46    1
    54    31    47    1
