@<TRIPOS>MOLECULE
*****
 43 50 0 0 0
SMALL
GASTEIGER

@<TRIPOS>ATOM
      1 C           6.7950    0.6113   -0.2402 C.3     1  UNL1       -0.0081
      2 C           5.8238    1.6748   -0.7542 C.2     1  UNL1       -0.0791
      3 C           4.5391    1.2716   -0.6262 C.2     1  UNL1       -0.0568
      4 C           4.5029   -0.0254   -0.0459 C.ar    1  UNL1       -0.0066
      5 C           5.8366   -0.4473    0.1870 C.ar    1  UNL1       -0.0289
      6 C           5.9066   -1.6997    0.7290 C.ar    1  UNL1       -0.0197
      7 S           4.3227   -2.3498    0.9406 S.2     1  UNL1       -0.0953
      8 C           3.5386   -0.9302    0.3117 C.ar    1  UNL1        0.0333
      9 C           2.1010   -0.8469    0.2359 C.ar    1  UNL1        0.0276
     10 C           1.2239   -1.8575   -0.1048 C.ar    1  UNL1       -0.0380
     11 C          -0.1006   -1.3905   -0.0528 C.ar    1  UNL1       -0.0005
     12 C          -1.2535   -2.1789   -0.3552 C.ar    1  UNL1        0.0084
     13 C          -1.3313   -3.4848   -0.7394 C.ar    1  UNL1        0.0100
     14 N          -2.6798   -3.7253   -0.8952 N.ar    1  UNL1       -0.3659
     15 C          -3.4045   -2.5809   -0.6097 C.ar    1  UNL1        0.0101
     16 C          -2.5189   -1.5824   -0.2630 C.ar    1  UNL1        0.0113
     17 C          -2.8150   -0.2687    0.1000 C.ar    1  UNL1        0.0359
     18 C          -4.1045    0.3001    0.1821 C.ar    1  UNL1        0.1438
     19 O          -5.3255   -0.2802   -0.0663 O.2     1  UNL1       -0.4623
     20 C          -6.2818    0.6739    0.1499 C.ar    1  UNL1        0.0932
     21 C          -5.7209    1.8751    0.5363 C.ar    1  UNL1       -0.0154
     22 C          -4.3581    1.6054    0.5460 C.ar    1  UNL1        0.0315
     23 C          -3.2377    2.4047    0.8519 C.ar    1  UNL1        0.0312
     24 C          -3.1759    3.7046    1.2354 C.ar    1  UNL1        0.1001
     25 O          -1.8525    4.0076    1.4107 O.2     1  UNL1       -0.4698
     26 C          -1.1252    2.8746    1.1284 C.ar    1  UNL1        0.1000
     27 C          -1.9501    1.8292    0.7677 C.ar    1  UNL1        0.0294
     28 C          -1.6189    0.5077    0.4033 C.ar    1  UNL1        0.0113
     29 C          -0.3071   -0.0651    0.3196 C.ar    1  UNL1        0.0291
     30 S           1.2644    0.6042    0.6147 S.2     1  UNL1       -0.0871
     31 H           7.4529    0.2650   -1.0420 H       1  UNL1        0.0356
     32 H           7.3816    0.9929    0.6000 H       1  UNL1        0.0356
     33 H           6.1400    2.6205   -1.1686 H       1  UNL1        0.0575
     34 H           3.6718    1.8426   -0.9260 H       1  UNL1        0.0621
     35 H           6.7788   -2.2739    1.0082 H       1  UNL1        0.0696
     36 H           1.5333   -2.8581   -0.3783 H       1  UNL1        0.0635
     37 H          -0.5968   -4.2578   -0.9164 H       1  UNL1        0.0813
     38 H          -3.0852   -4.6087   -1.1767 H       1  UNL1        0.1648
     39 H          -4.4836   -2.5993   -0.6838 H       1  UNL1        0.0813
     40 H          -7.2992    0.3451   -0.0117 H       1  UNL1        0.1030
     41 H          -6.2478    2.7885    0.7686 H       1  UNL1        0.0655
     42 H          -3.8787    4.5029    1.4228 H       1  UNL1        0.1036
     43 H          -0.0599    3.0088    1.2397 H       1  UNL1        0.1036
@<TRIPOS>BOND
     1     1     2    1
     2     2     3    2
     3     3     4    1
     4     4     5   ar
     5     5     6   ar
     6     6     7   ar
     7     7     8   ar
     8     8     9    1
     9     9    10   ar
    10    10    11   ar
    11    11    12   ar
    12    12    13   ar
    13    13    14   ar
    14    14    15   ar
    15    15    16   ar
    16    16    17   ar
    17    17    18   ar
    18    18    19   ar
    19    19    20   ar
    20    20    21   ar
    21    21    22   ar
    22    22    23   ar
    23    23    24   ar
    24    24    25   ar
    25    25    26   ar
    26    26    27   ar
    27    27    28   ar
    28    28    29   ar
    29    29    30   ar
    30     5     1    1
    31    30     9   ar
    32     8     4   ar
    33    29    11   ar
    34    16    12   ar
    35    28    17   ar
    36    22    18   ar
    37    27    23   ar
    38     1    31    1
    39     1    32    1
    40     2    33    1
    41     3    34    1
    42     6    35    1
    43    10    36    1
    44    13    37    1
    45    14    38    1
    46    15    39    1
    47    20    40    1
    48    21    41    1
    49    24    42    1
    50    26    43    1
