@<TRIPOS>MOLECULE
*****
 44 52 0 0 0
SMALL
GASTEIGER

@<TRIPOS>ATOM
      1 C           7.1070   -1.6168   -0.0163 C.3     1  UNL1       -0.0081
      2 C           6.0122   -2.6043   -0.4207 C.2     1  UNL1       -0.0791
      3 C           4.7900   -2.0262   -0.3855 C.2     1  UNL1       -0.0568
      4 C           4.9156   -0.6702    0.0228 C.ar    1  UNL1       -0.0066
      5 C           6.2900   -0.3972    0.2425 C.ar    1  UNL1       -0.0289
      6 C           6.5172    0.8949    0.6240 C.ar    1  UNL1       -0.0197
      7 S           5.0306    1.7656    0.7024 S.2     1  UNL1       -0.0953
      8 C           4.0736    0.3905    0.2311 C.ar    1  UNL1        0.0333
      9 C           2.6385    0.4878    0.1191 C.ar    1  UNL1        0.0276
     10 C           1.9075    1.5688   -0.3320 C.ar    1  UNL1       -0.0381
     11 C           0.5271    1.2914   -0.2787 C.ar    1  UNL1       -0.0013
     12 C          -0.5087    2.1618   -0.7284 C.ar    1  UNL1       -0.0020
     13 C          -0.2787    3.3668   -1.3311 C.ar    1  UNL1       -0.0160
     14 S          -1.7712    4.0088   -1.8732 S.2     1  UNL1       -0.1038
     15 C          -2.6377    2.6382   -1.2845 C.ar    1  UNL1       -0.0160
     16 C          -1.8581    1.7453   -0.5740 C.ar    1  UNL1       -0.0018
     17 C          -2.3586    0.5419    0.0292 C.ar    1  UNL1        0.0034
     18 C          -1.2412   -0.3486    0.2932 C.ar    1  UNL1        0.0259
     19 C          -1.5976   -1.6871    0.6615 C.ar    1  UNL1        0.1093
     20 N          -0.7557   -2.7126    0.8894 N.ar    1  UNL1       -0.1901
     21 S          -1.6474   -4.0518    1.2331 S.2     1  UNL1        0.1165
     22 N          -3.1662   -3.4209    1.1209 N.ar    1  UNL1       -0.1901
     23 C          -3.0381   -2.1148    0.8144 C.ar    1  UNL1        0.1083
     24 C          -4.1235   -1.1943    0.6737 C.ar    1  UNL1        0.0131
     25 C          -5.4536   -1.6793    0.9005 C.ar    1  UNL1       -0.0497
     26 C          -6.5814   -0.8599    0.9011 C.ar    1  UNL1       -0.0328
     27 C          -6.3205    0.5103    0.7316 C.ar    1  UNL1        0.1005
     28 N          -7.2581    1.4682    0.7870 N.ar    1  UNL1       -0.1908
     29 S          -6.4678    2.9118    0.6376 S.2     1  UNL1        0.1165
     30 N          -4.9127    2.3831    0.4657 N.ar    1  UNL1       -0.1901
     31 C          -4.9185    1.0382    0.4768 C.ar    1  UNL1        0.1082
     32 C          -3.7606    0.1609    0.3485 C.ar    1  UNL1        0.0208
     33 C           0.1410    0.0480    0.1886 C.ar    1  UNL1        0.0304
     34 S           1.6084   -0.8015    0.5799 S.2     1  UNL1       -0.0870
     35 H           7.6262   -1.9577    0.8837 H       1  UNL1        0.0356
     36 H           7.8163   -1.4653   -0.8346 H       1  UNL1        0.0356
     37 H           6.2066   -3.6294   -0.6990 H       1  UNL1        0.0575
     38 H           3.8597   -2.5171   -0.6343 H       1  UNL1        0.0621
     39 H           7.4536    1.3822    0.8562 H       1  UNL1        0.0696
     40 H           2.3632    2.4859   -0.6826 H       1  UNL1        0.0635
     41 H           0.6458    3.8902   -1.5288 H       1  UNL1        0.0700
     42 H          -3.6857    2.5947   -1.5326 H       1  UNL1        0.0700
     43 H          -5.6090   -2.7414    1.1044 H       1  UNL1        0.0625
     44 H          -7.5793   -1.2393    1.0838 H       1  UNL1        0.0640
@<TRIPOS>BOND
     1     1     2    1
     2     2     3    2
     3     3     4    1
     4     4     5   ar
     5     5     6   ar
     6     6     7   ar
     7     7     8   ar
     8     8     9    1
     9     9    10   ar
    10    10    11   ar
    11    11    12   ar
    12    12    13   ar
    13    13    14   ar
    14    14    15   ar
    15    15    16   ar
    16    16    17   ar
    17    17    18   ar
    18    18    19   ar
    19    19    20   ar
    20    20    21   ar
    21    21    22   ar
    22    22    23   ar
    23    23    24   ar
    24    24    25   ar
    25    25    26   ar
    26    26    27   ar
    27    27    28   ar
    28    28    29   ar
    29    29    30   ar
    30    30    31   ar
    31    31    32   ar
    32    18    33   ar
    33    33    34   ar
    34     5     1    1
    35    34     9   ar
    36     8     4   ar
    37    33    11   ar
    38    16    12   ar
    39    32    17   ar
    40    23    19   ar
    41    32    24   ar
    42    31    27   ar
    43     1    35    1
    44     1    36    1
    45     2    37    1
    46     3    38    1
    47     6    39    1
    48    10    40    1
    49    13    41    1
    50    15    42    1
    51    25    43    1
    52    26    44    1
