@<TRIPOS>MOLECULE
*****
 45 52 0 0 0
SMALL
GASTEIGER

@<TRIPOS>ATOM
      1 C           6.8589    0.6394    0.3840 C.3     1  UNL1       -0.0081
      2 C           5.9555    1.7380    0.9535 C.2     1  UNL1       -0.0791
      3 C           4.6492    1.3991    0.8605 C.2     1  UNL1       -0.0568
      4 C           4.5395    0.1184    0.2596 C.ar    1  UNL1       -0.0070
      5 C           5.8370   -0.3602   -0.0388 C.ar    1  UNL1       -0.0289
      6 C           5.8167   -1.5931   -0.6300 C.ar    1  UNL1       -0.0197
      7 S           4.1881   -2.1453   -0.8136 S.2     1  UNL1       -0.0958
      8 C           3.5200   -0.7228   -0.0856 C.ar    1  UNL1        0.0273
      9 C           2.0831   -0.5893    0.0597 C.ar    1  UNL1       -0.0019
     10 C           1.2038   -0.4528   -1.0383 C.ar    1  UNL1       -0.0445
     11 C          -0.2303   -0.2927   -0.9124 C.ar    1  UNL1       -0.0049
     12 C          -1.1433   -0.1511   -1.9992 C.ar    1  UNL1       -0.0023
     13 C          -0.7575   -0.1543   -3.3254 C.ar    1  UNL1       -0.0160
     14 S          -2.0870    0.0363   -4.4096 S.2     1  UNL1       -0.1038
     15 C          -3.2200    0.1269   -3.1191 C.ar    1  UNL1       -0.0159
     16 C          -2.5575    0.0114   -1.9324 C.ar    1  UNL1        0.0011
     17 C          -3.1534    0.0389   -0.6362 C.ar    1  UNL1        0.0368
     18 C          -4.4819    0.1799   -0.2065 C.ar    1  UNL1        0.0285
     19 C          -5.7640    0.3474   -0.7634 C.ar    1  UNL1       -0.0504
     20 C          -6.8716    0.4488    0.0928 C.ar    1  UNL1       -0.0610
     21 C          -6.7200    0.3861    1.4787 C.ar    1  UNL1       -0.0582
     22 C          -5.4591    0.2204    2.0569 C.ar    1  UNL1       -0.0187
     23 C          -4.3761    0.1225    1.1844 C.ar    1  UNL1        0.1363
     24 O          -3.0789   -0.0414    1.5766 O.2     1  UNL1       -0.4542
     25 C          -2.3051   -0.0954    0.4465 C.ar    1  UNL1        0.1451
     26 C          -0.9057   -0.2560    0.3678 C.ar    1  UNL1        0.0339
     27 C          -0.0143   -0.3972    1.4531 C.ar    1  UNL1        0.0010
     28 C          -0.3804   -0.4041    2.7805 C.ar    1  UNL1       -0.0159
     29 S           0.9641   -0.6105    3.8272 S.2     1  UNL1       -0.1038
     30 C           2.0607   -0.6985    2.5136 C.ar    1  UNL1       -0.0160
     31 C           1.4235   -0.5574    1.3009 C.ar    1  UNL1       -0.0019
     32 H           7.5222    0.2418    1.1570 H       1  UNL1        0.0356
     33 H           7.4382    1.0135   -0.4646 H       1  UNL1        0.0356
     34 H           6.3306    2.6605    1.3710 H       1  UNL1        0.0575
     35 H           3.8125    2.0004    1.1885 H       1  UNL1        0.0621
     36 H           6.6435   -2.2024   -0.9671 H       1  UNL1        0.0696
     37 H           1.6477   -0.4628   -2.0329 H       1  UNL1        0.0630
     38 H           0.2295   -0.2572   -3.7527 H       1  UNL1        0.0700
     39 H          -4.2689    0.2560   -3.3338 H       1  UNL1        0.0700
     40 H          -5.9172    0.3999   -1.8354 H       1  UNL1        0.0625
     41 H          -7.8651    0.5782   -0.3325 H       1  UNL1        0.0618
     42 H          -7.5954    0.4671    2.1198 H       1  UNL1        0.0619
     43 H          -5.3224    0.1694    3.1304 H       1  UNL1        0.0654
     44 H          -1.3609   -0.3050    3.2230 H       1  UNL1        0.0700
     45 H           3.1120   -0.8508    2.7166 H       1  UNL1        0.0700
@<TRIPOS>BOND
     1     1     2    1
     2     2     3    2
     3     3     4    1
     4     4     5   ar
     5     5     6   ar
     6     6     7   ar
     7     7     8   ar
     8     8     9    1
     9     9    10   ar
    10    10    11   ar
    11    11    12   ar
    12    12    13   ar
    13    13    14   ar
    14    14    15   ar
    15    15    16   ar
    16    16    17   ar
    17    17    18   ar
    18    18    19   ar
    19    19    20   ar
    20    20    21   ar
    21    21    22   ar
    22    22    23   ar
    23    23    24   ar
    24    24    25   ar
    25    25    26   ar
    26    26    27   ar
    27    27    28   ar
    28    28    29   ar
    29    29    30   ar
    30    30    31   ar
    31     5     1    1
    32    31     9   ar
    33     8     4   ar
    34    26    11   ar
    35    31    27   ar
    36    16    12   ar
    37    25    17   ar
    38    23    18   ar
    39     1    32    1
    40     1    33    1
    41     2    34    1
    42     3    35    1
    43     6    36    1
    44    10    37    1
    45    13    38    1
    46    15    39    1
    47    19    40    1
    48    20    41    1
    49    21    42    1
    50    22    43    1
    51    28    44    1
    52    30    45    1
