@<TRIPOS>MOLECULE
*****
 36 42 0 0 0
SMALL
GASTEIGER

@<TRIPOS>ATOM
      1 C           6.3149   -0.1551    0.3988 C.3     1  UNL1       -0.0081
      2 C           5.5727   -0.7181   -0.8160 C.2     1  UNL1       -0.0791
      3 C           4.2343   -0.5718   -0.6870 C.2     1  UNL1       -0.0568
      4 C           3.9450    0.0622    0.5512 C.ar    1  UNL1       -0.0066
      5 C           5.1668    0.3279    1.2174 C.ar    1  UNL1       -0.0289
      6 C           4.9844    0.9548    2.4181 C.ar    1  UNL1       -0.0197
      7 S           3.3020    1.2084    2.7124 S.2     1  UNL1       -0.0953
      8 C           2.8208    0.4719    1.2159 C.ar    1  UNL1        0.0333
      9 C           1.4392    0.3286    0.8335 C.ar    1  UNL1        0.0277
     10 C           0.8514   -0.7930    0.2628 C.ar    1  UNL1       -0.0380
     11 C          -0.5118   -0.5568    0.0104 C.ar    1  UNL1       -0.0009
     12 C          -1.4778   -1.4500   -0.5653 C.ar    1  UNL1       -0.0020
     13 C          -1.1688   -2.7234   -0.9630 C.ar    1  UNL1       -0.0160
     14 S          -2.5709   -3.4978   -1.6053 S.2     1  UNL1       -0.1038
     15 C          -3.5635   -2.1062   -1.3342 C.ar    1  UNL1       -0.0160
     16 C          -2.8319   -1.0942   -0.7721 C.ar    1  UNL1       -0.0009
     17 C          -3.3076    0.2058   -0.4050 C.ar    1  UNL1        0.0128
     18 C          -4.6282    0.6747   -0.5608 C.ar    1  UNL1        0.0347
     19 S          -6.1771    0.1295   -1.1541 S.2     1  UNL1       -0.0955
     20 C          -6.8878    1.6367   -0.7673 C.ar    1  UNL1       -0.0227
     21 C          -6.0148    2.5395   -0.2100 C.ar    1  UNL1       -0.0403
     22 C          -4.7083    1.9740   -0.0941 C.ar    1  UNL1        0.0276
     23 S          -3.1692    2.5803    0.5191 S.2     1  UNL1       -0.0865
     24 C          -2.4387    1.0997    0.1480 C.ar    1  UNL1        0.0359
     25 C          -0.9531    0.6895    0.3671 C.ar    1  UNL1        0.0349
     26 S           0.2983    1.6149    1.0284 S.2     1  UNL1       -0.0866
     27 H           6.8776   -0.9412    0.9098 H       1  UNL1        0.0356
     28 H           6.9780    0.6630    0.1047 H       1  UNL1        0.0356
     29 H           6.0717   -1.1630   -1.6641 H       1  UNL1        0.0575
     30 H           3.4957   -0.8754   -1.4153 H       1  UNL1        0.0621
     31 H           5.7228    1.2804    3.1373 H       1  UNL1        0.0696
     32 H           1.3920   -1.7091    0.0639 H       1  UNL1        0.0635
     33 H          -0.2306   -3.2585   -0.9256 H       1  UNL1        0.0700
     34 H          -4.6036   -2.1588   -1.6147 H       1  UNL1        0.0700
     35 H          -7.9388    1.7889   -0.9738 H       1  UNL1        0.0694
     36 H          -6.2851    3.5416    0.0979 H       1  UNL1        0.0634
@<TRIPOS>BOND
     1     1     2    1
     2     2     3    2
     3     3     4    1
     4     4     5   ar
     5     5     6   ar
     6     6     7   ar
     7     7     8   ar
     8     8     9    1
     9     9    10   ar
    10    10    11   ar
    11    11    12   ar
    12    12    13   ar
    13    13    14   ar
    14    14    15   ar
    15    15    16   ar
    16    16    17   ar
    17    17    18   ar
    18    18    19   ar
    19    19    20   ar
    20    20    21   ar
    21    21    22   ar
    22    22    23   ar
    23    23    24   ar
    24    24    25   ar
    25    25    26   ar
    26     5     1    1
    27    26     9   ar
    28     8     4   ar
    29    25    11   ar
    30    16    12   ar
    31    24    17   ar
    32    22    18   ar
    33     1    27    1
    34     1    28    1
    35     2    29    1
    36     3    30    1
    37     6    31    1
    38    10    32    1
    39    13    33    1
    40    15    34    1
    41    20    35    1
    42    21    36    1
