@<TRIPOS>MOLECULE
*****
 44 51 0 0 0
SMALL
GASTEIGER

@<TRIPOS>ATOM
      1 C           6.5045    2.3319    0.2591 C.3     1  UNL1       -0.0081
      2 C           5.3214    2.9923    0.9750 C.2     1  UNL1       -0.0791
      3 C           4.2395    2.1803    0.9908 C.2     1  UNL1       -0.0568
      4 C           4.5563    0.9661    0.3286 C.ar    1  UNL1       -0.0070
      5 C           5.8970    1.0248   -0.1196 C.ar    1  UNL1       -0.0289
      6 C           6.2814   -0.1148   -0.7705 C.ar    1  UNL1       -0.0197
      7 S           4.9734   -1.2448   -0.8286 S.2     1  UNL1       -0.0957
      8 C           3.9027   -0.1982    0.0415 C.ar    1  UNL1        0.0288
      9 C           2.5353   -0.6050    0.3092 C.ar    1  UNL1        0.0180
     10 C           1.4339    0.0114   -0.3234 C.ar    1  UNL1       -0.0436
     11 C           0.0811   -0.3428   -0.0844 C.ar    1  UNL1       -0.0145
     12 C          -0.9486    0.3221   -0.7671 C.ar    1  UNL1       -0.0455
     13 C          -2.3049   -0.0152   -0.5437 C.ar    1  UNL1       -0.0046
     14 C          -3.4484    0.5636   -1.1546 C.ar    1  UNL1        0.0079
     15 C          -3.4729    1.5734   -2.0924 C.ar    1  UNL1        0.0100
     16 N          -4.7984    1.8281   -2.4160 N.ar    1  UNL1       -0.3659
     17 C          -5.6376    0.9973   -1.7003 C.ar    1  UNL1        0.0101
     18 C          -4.8005    0.2385   -0.9420 C.ar    1  UNL1        0.0107
     19 C          -5.0892   -0.7859   -0.0120 C.ar    1  UNL1        0.0299
     20 C          -6.2850   -1.3415    0.4242 C.ar    1  UNL1       -0.0155
     21 C          -5.8816   -2.2978    1.3362 C.ar    1  UNL1        0.0932
     22 O          -4.5185   -2.3340    1.4591 O.2     1  UNL1       -0.4623
     23 C          -4.0110   -1.3804    0.6089 C.ar    1  UNL1        0.1431
     24 C          -2.6435   -1.0445    0.3869 C.ar    1  UNL1        0.0263
     25 C          -1.6245   -1.7167    1.0752 C.ar    1  UNL1       -0.0406
     26 C          -0.2746   -1.3702    0.8424 C.ar    1  UNL1        0.0110
     27 C           0.8100   -2.0244    1.5223 C.ar    1  UNL1        0.1082
     28 N           0.7045   -3.0084    2.4346 N.ar    1  UNL1       -0.1901
     29 S           2.2446   -3.3939    2.9058 S.2     1  UNL1        0.1165
     30 N           3.1229   -2.3340    1.9876 N.ar    1  UNL1       -0.1901
     31 C           2.2449   -1.6297    1.2503 C.ar    1  UNL1        0.1087
     32 H           7.3501    2.2060    0.9408 H       1  UNL1        0.0356
     33 H           6.8012    2.9129   -0.6184 H       1  UNL1        0.0356
     34 H           5.3662    3.9785    1.4125 H       1  UNL1        0.0575
     35 H           3.2837    2.4073    1.4415 H       1  UNL1        0.0621
     36 H           7.2358   -0.3586   -1.2153 H       1  UNL1        0.0696
     37 H           1.6477    0.8032   -1.0446 H       1  UNL1        0.0630
     38 H          -0.7113    1.1079   -1.4803 H       1  UNL1        0.0630
     39 H          -2.6872    2.1427   -2.5696 H       1  UNL1        0.0813
     40 H          -5.1046    2.5246   -3.0832 H       1  UNL1        0.1648
     41 H          -6.7117    1.0420   -1.8127 H       1  UNL1        0.0813
     42 H          -7.2989   -1.1055    0.1390 H       1  UNL1        0.0655
     43 H          -6.4137   -3.0057    1.9567 H       1  UNL1        0.1030
     44 H          -1.8715   -2.5031    1.7867 H       1  UNL1        0.0631
@<TRIPOS>BOND
     1     1     2    1
     2     2     3    2
     3     3     4    1
     4     4     5   ar
     5     5     6   ar
     6     6     7   ar
     7     7     8   ar
     8     8     9    1
     9     9    10   ar
    10    10    11   ar
    11    11    12   ar
    12    12    13   ar
    13    13    14   ar
    14    14    15   ar
    15    15    16   ar
    16    16    17   ar
    17    17    18   ar
    18    18    19   ar
    19    19    20   ar
    20    20    21   ar
    21    21    22   ar
    22    22    23   ar
    23    23    24   ar
    24    24    25   ar
    25    25    26   ar
    26    26    27   ar
    27    27    28   ar
    28    28    29   ar
    29    29    30   ar
    30    30    31   ar
    31     5     1    1
    32    31     9   ar
    33     8     4   ar
    34    26    11   ar
    35    31    27   ar
    36    24    13   ar
    37    18    14   ar
    38    23    19   ar
    39     1    32    1
    40     1    33    1
    41     2    34    1
    42     3    35    1
    43     6    36    1
    44    10    37    1
    45    12    38    1
    46    15    39    1
    47    16    40    1
    48    17    41    1
    49    20    42    1
    50    21    43    1
    51    25    44    1
