@<TRIPOS>MOLECULE
*****
 45 51 0 0 0
SMALL
GASTEIGER

@<TRIPOS>ATOM
      1 C           6.9029    1.3736   -0.1639 C.3     1  UNL1       -0.0081
      2 C           5.6819    2.2365   -0.4909 C.2     1  UNL1       -0.0791
      3 C           4.5505    1.4962   -0.5272 C.2     1  UNL1       -0.0568
      4 C           4.8622    0.1394   -0.2412 C.ar    1  UNL1       -0.0057
      5 C           6.2605    0.0356   -0.0319 C.ar    1  UNL1       -0.0288
      6 C           6.6612   -1.2462    0.2217 C.ar    1  UNL1       -0.0196
      7 S           5.3054   -2.3139    0.1943 S.2     1  UNL1       -0.0943
      8 C           4.1752   -1.0402   -0.1389 C.ar    1  UNL1        0.0429
      9 C           2.7700   -1.2999   -0.2578 C.ar    1  UNL1        0.0547
     10 C           2.0989   -2.4219   -0.7059 C.ar    1  UNL1       -0.0281
     11 C           0.7034   -2.1692   -0.6142 C.ar    1  UNL1        0.0009
     12 C          -0.4517   -2.9169   -0.8802 C.ar    1  UNL1       -0.0434
     13 C          -1.7233   -2.3479   -0.6523 C.ar    1  UNL1        0.0015
     14 C          -2.8512   -3.1289   -0.8180 C.ar    1  UNL1        0.0360
     15 N          -4.1034   -2.7213   -0.5542 N.ar    1  UNL1       -0.2543
     16 C          -4.2886   -1.4505   -0.1892 C.ar    1  UNL1        0.0722
     17 C          -5.5956   -1.1202    0.1039 C.ar    1  UNL1       -0.0351
     18 C          -5.9658    0.1650    0.4744 C.ar    1  UNL1       -0.0520
     19 C          -5.0275    1.1888    0.4697 C.ar    1  UNL1       -0.0172
     20 C          -5.4571    2.4954    0.7617 C.ar    1  UNL1       -0.0540
     21 C          -4.5848    3.5732    0.6752 C.ar    1  UNL1       -0.0612
     22 C          -3.2831    3.3537    0.2628 C.ar    1  UNL1       -0.0611
     23 C          -2.8495    2.0512   -0.0134 C.ar    1  UNL1       -0.0534
     24 C          -3.6761    0.9061    0.1368 C.ar    1  UNL1       -0.0081
     25 C          -3.2582   -0.4823   -0.0870 C.ar    1  UNL1        0.0158
     26 C          -1.9026   -1.0126   -0.2209 C.ar    1  UNL1       -0.0047
     27 C          -0.7120   -0.3117    0.1138 C.ar    1  UNL1       -0.0294
     28 C           0.5492   -0.8888   -0.1070 C.ar    1  UNL1        0.0475
     29 N           1.8114   -0.3917    0.1234 N.ar    1  UNL1       -0.3537
     30 H           7.3688    1.6965    0.7711 H       1  UNL1        0.0356
     31 H           7.6271    1.3985   -0.9828 H       1  UNL1        0.0356
     32 H           5.7392    3.2975   -0.6838 H       1  UNL1        0.0575
     33 H           3.5665    1.8734   -0.7643 H       1  UNL1        0.0621
     34 H           7.6552   -1.6256    0.4123 H       1  UNL1        0.0696
     35 H           2.5612   -3.3333   -1.0627 H       1  UNL1        0.0645
     36 H          -0.3522   -3.9400   -1.2333 H       1  UNL1        0.0631
     37 H          -2.7821   -4.1646   -1.1419 H       1  UNL1        0.0836
     38 H          -6.3586   -1.8948    0.0524 H       1  UNL1        0.0639
     39 H          -7.0093    0.3587    0.7124 H       1  UNL1        0.0624
     40 H          -6.4920    2.6870    1.0395 H       1  UNL1        0.0624
     41 H          -4.9327    4.5793    0.8914 H       1  UNL1        0.0618
     42 H          -2.6025    4.1913    0.1340 H       1  UNL1        0.0618
     43 H          -1.8491    1.9624   -0.4230 H       1  UNL1        0.0624
     44 H          -0.7478    0.6526    0.6041 H       1  UNL1        0.0644
     45 H           2.0063    0.5103    0.5324 H       1  UNL1        0.1659
@<TRIPOS>BOND
     1     1     2    1
     2     2     3    2
     3     3     4    1
     4     4     5   ar
     5     5     6   ar
     6     6     7   ar
     7     7     8   ar
     8     8     9    1
     9     9    10   ar
    10    10    11   ar
    11    11    12   ar
    12    12    13   ar
    13    13    14   ar
    14    14    15   ar
    15    15    16   ar
    16    16    17   ar
    17    17    18   ar
    18    18    19   ar
    19    19    20   ar
    20    20    21   ar
    21    21    22   ar
    22    22    23   ar
    23    23    24   ar
    24    24    25   ar
    25    25    26   ar
    26    26    27   ar
    27    27    28   ar
    28    28    29   ar
    29     5     1    1
    30    29     9   ar
    31     8     4   ar
    32    28    11   ar
    33    26    13   ar
    34    25    16   ar
    35    24    19   ar
    36     1    30    1
    37     1    31    1
    38     2    32    1
    39     3    33    1
    40     6    34    1
    41    10    35    1
    42    12    36    1
    43    14    37    1
    44    17    38    1
    45    18    39    1
    46    20    40    1
    47    21    41    1
    48    22    42    1
    49    23    43    1
    50    27    44    1
    51    29    45    1
