@<TRIPOS>MOLECULE
*****
 46 52 0 0 0
SMALL
GASTEIGER

@<TRIPOS>ATOM
      1 C           7.9384    0.3796    0.3245 C.3     1  UNL1        0.0000
      2 C           7.1499    1.6661    0.5755 C.2     1  UNL1        0.0000
      3 C           5.8177    1.4490    0.4916 C.2     1  UNL1        0.0000
      4 C           5.5763    0.0806    0.1947 C.ar    1  UNL1        0.0000
      5 C           6.8238   -0.5820    0.0903 C.ar    1  UNL1        0.0000
      6 C           6.6882   -1.9105   -0.1956 C.ar    1  UNL1        0.0000
      7 S           5.0198   -2.3245   -0.3335 S.2     1  UNL1        0.0000
      8 C           4.4690   -0.7062    0.0048 C.ar    1  UNL1        0.0000
      9 C           3.0377   -0.3712    0.0280 C.ar    1  UNL1        0.0000
     10 C           2.0299   -1.2994    0.2551 C.ar    1  UNL1        0.0000
     11 C           0.6877   -0.8860    0.2581 C.ar    1  UNL1        0.0000
     12 C          -0.3237   -1.8083    0.5021 C.ar    1  UNL1        0.0000
     13 C          -1.6628   -1.4154    0.4884 C.ar    1  UNL1        0.0000
     14 C          -2.0754   -0.0937    0.2122 C.ar    1  UNL1        0.0000
     15 C          -1.0369    0.8712    0.0497 C.ar    1  UNL1        0.0000
     16 C          -1.4123    2.2261   -0.0704 C.ar    1  UNL1        0.0000
     17 C          -2.7382    2.6413    0.0108 C.ar    1  UNL1        0.0000
     18 C          -3.7602    1.7055    0.1341 C.ar    1  UNL1        0.0000
     19 C          -5.1374    2.2210    0.3135 C.ar    1  UNL1        0.0000
     20 C          -6.1928    1.4011    0.4193 C.ar    1  UNL1        0.0000
     21 C          -6.0058   -0.0198    0.2667 C.ar    1  UNL1        0.0000
     22 C          -7.0302   -0.8905    0.1911 C.2     1  UNL1        0.0000
     23 SI         -6.4259   -2.5952   -0.2384 Si      1  UNL1        0.0000
     24 C          -4.6890   -1.8939   -0.2971 C.2     1  UNL1        0.0000
     25 C          -4.6487   -0.5933    0.0692 C.ar    1  UNL1        0.0000
     26 C          -3.4520    0.3162    0.1419 C.ar    1  UNL1        0.0000
     27 C           0.3491    0.4611    0.0381 C.ar    1  UNL1        0.0000
     28 C           1.4548    1.3055   -0.1719 C.ar    1  UNL1        0.0000
     29 N           2.7601    0.9327   -0.1792 N.ar    1  UNL1        0.0000
     30 H           8.5797    0.4815   -0.5554 H       1  UNL1        0.0000
     31 H           8.5315    0.1091    1.2024 H       1  UNL1        0.0000
     32 H           7.6115    2.6187    0.7874 H       1  UNL1        0.0000
     33 H           5.0428    2.1918    0.6226 H       1  UNL1        0.0000
     34 H           7.4553   -2.6590   -0.3350 H       1  UNL1        0.0000
     35 H           2.2730   -2.3406    0.4414 H       1  UNL1        0.0000
     36 H          -0.0892   -2.8492    0.7168 H       1  UNL1        0.0000
     37 H          -2.3858   -2.1776    0.7588 H       1  UNL1        0.0000
     38 H          -0.6685    3.0108   -0.1799 H       1  UNL1        0.0000
     39 H          -2.9580    3.7060   -0.0234 H       1  UNL1        0.0000
     40 H          -5.2767    3.2943    0.3932 H       1  UNL1        0.0000
     41 H          -7.1926    1.7958    0.5645 H       1  UNL1        0.0000
     42 H          -8.0825   -0.6685    0.2707 H       1  UNL1        0.0000
     43 H          -6.8942   -3.0522   -1.5689 H       1  UNL1        0.0000
     44 H          -6.6008   -3.5642    0.8704 H       1  UNL1        0.0000
     45 H          -3.8881   -2.5320   -0.6256 H       1  UNL1        0.0000
     46 H           1.3316    2.3677   -0.3593 H       1  UNL1        0.0000
@<TRIPOS>BOND
     1     1     2    1
     2     2     3    2
     3     3     4    1
     4     4     5   ar
     5     5     6   ar
     6     6     7   ar
     7     7     8   ar
     8     8     9    1
     9     9    10   ar
    10    10    11   ar
    11    11    12   ar
    12    12    13   ar
    13    13    14   ar
    14    14    15   ar
    15    15    16   ar
    16    16    17   ar
    17    17    18   ar
    18    18    19   ar
    19    19    20   ar
    20    20    21   ar
    21    21    22    2
    22    22    23    1
    23    23    24    1
    24    24    25    2
    25    25    26   ar
    26    15    27   ar
    27    27    28   ar
    28    28    29   ar
    29     5     1    1
    30    29     9   ar
    31     8     4   ar
    32    27    11   ar
    33    26    14   ar
    34    26    18   ar
    35    25    21   ar
    36     1    30    1
    37     1    31    1
    38     2    32    1
    39     3    33    1
    40     6    34    1
    41    10    35    1
    42    12    36    1
    43    13    37    1
    44    16    38    1
    45    17    39    1
    46    19    40    1
    47    20    41    1
    48    22    42    1
    49    23    43    1
    50    23    44    1
    51    24    45    1
    52    28    46    1
