@<TRIPOS>MOLECULE
*****
 42 48 0 0 0
SMALL
GASTEIGER

@<TRIPOS>ATOM
      1 SI         -3.1063   -1.1309   -3.3563 Si      1  UNL1        0.0000
      2 C          -3.7508   -0.5551   -1.6994 C.2     1  UNL1        0.0000
      3 C          -2.7439   -0.2574   -0.8492 C.ar    1  UNL1        0.0000
      4 C          -2.9159    0.2135    0.5426 C.ar    1  UNL1        0.0000
      5 C          -1.8071    0.4075    1.2973 C.ar    1  UNL1        0.0000
      6 C          -0.5175    0.1817    0.7208 C.ar    1  UNL1        0.0000
      7 S           0.9174    0.4190    1.6007 S.2     1  UNL1        0.0000
      8 C           1.9264   -0.0235    0.2755 C.ar    1  UNL1        0.0000
      9 C           1.1468   -0.3543   -0.8445 C.ar    1  UNL1        0.0000
     10 N           1.6940   -0.7403   -2.0326 N.ar    1  UNL1        0.0000
     11 C           3.0383   -0.7953   -2.0932 C.ar    1  UNL1        0.0000
     12 C           3.9230   -0.4977   -1.0685 C.ar    1  UNL1        0.0000
     13 C           5.3554   -0.5968   -1.2636 C.ar    1  UNL1        0.0000
     14 C           6.3288   -0.3137   -0.2784 C.ar    1  UNL1        0.0000
     15 C           5.7152    0.0727    0.9019 C.ar    1  UNL1        0.0000
     16 C           6.3478    0.4203    2.0641 C.ar    1  UNL1        0.0000
     17 O           5.4141    0.7407    3.0072 O.2     1  UNL1        0.0000
     18 C           4.1793    0.5933    2.4337 C.ar    1  UNL1        0.0000
     19 C           4.3070    0.1815    1.1301 C.ar    1  UNL1        0.0000
     20 C           3.3271   -0.0951    0.1652 C.ar    1  UNL1        0.0000
     21 C          -0.2543   -0.2333   -0.5739 C.ar    1  UNL1        0.0000
     22 C          -1.3840   -0.4801   -1.4284 C.ar    1  UNL1        0.0000
     23 C          -1.3806   -0.9175   -2.7023 C.2     1  UNL1        0.0000
     24 C          -4.1629    0.5032    1.1712 C.ar    1  UNL1        0.0000
     25 C          -4.7788    0.0720    2.3311 C.ar    1  UNL1        0.0000
     26 C          -6.0210    0.7444    2.4357 C.ar    1  UNL1        0.0000
     27 C          -6.1294    1.5764    1.3447 C.ar    1  UNL1        0.0000
     28 N          -4.9967    1.4283    0.5867 N.ar    1  UNL1        0.0000
     29 H          -3.4350   -0.1700   -4.4369 H       1  UNL1        0.0000
     30 H          -3.4515   -2.5457   -3.6327 H       1  UNL1        0.0000
     31 H          -4.8109   -0.5130   -1.5067 H       1  UNL1        0.0000
     32 H          -1.8748    0.7560    2.3244 H       1  UNL1        0.0000
     33 H           3.4113   -1.1103   -3.0664 H       1  UNL1        0.0000
     34 H           5.7220   -0.9137   -2.2427 H       1  UNL1        0.0000
     35 H           7.3933   -0.3948   -0.4466 H       1  UNL1        0.0000
     36 H           7.3778    0.4930    2.3833 H       1  UNL1        0.0000
     37 H           3.3552    0.8215    3.0929 H       1  UNL1        0.0000
     38 H          -0.5183   -1.1508   -3.3068 H       1  UNL1        0.0000
     39 H          -4.3785   -0.6564    3.0247 H       1  UNL1        0.0000
     40 H          -6.7548    0.6341    3.2236 H       1  UNL1        0.0000
     41 H          -6.9103    2.2617    1.0439 H       1  UNL1        0.0000
     42 H          -4.7971    1.9249   -0.2721 H       1  UNL1        0.0000
@<TRIPOS>BOND
     1     1     2    1
     2     2     3    2
     3     3     4   ar
     4     4     5   ar
     5     5     6   ar
     6     6     7   ar
     7     7     8   ar
     8     8     9   ar
     9     9    10   ar
    10    10    11   ar
    11    11    12   ar
    12    12    13   ar
    13    13    14   ar
    14    14    15   ar
    15    15    16   ar
    16    16    17   ar
    17    17    18   ar
    18    18    19   ar
    19    19    20   ar
    20     9    21   ar
    21    21    22   ar
    22    22    23    2
    23     4    24    1
    24    24    25   ar
    25    25    26   ar
    26    26    27   ar
    27    27    28   ar
    28    23     1    1
    29    28    24   ar
    30    22     3   ar
    31    21     6   ar
    32    20     8   ar
    33    20    12   ar
    34    19    15   ar
    35     1    29    1
    36     1    30    1
    37     2    31    1
    38     5    32    1
    39    11    33    1
    40    13    34    1
    41    14    35    1
    42    16    36    1
    43    18    37    1
    44    23    38    1
    45    25    39    1
    46    26    40    1
    47    27    41    1
    48    28    42    1
