@<TRIPOS>MOLECULE
*****
 41 47 0 0 0
SMALL
GASTEIGER

@<TRIPOS>ATOM
      1 C           6.8368   -0.8942    0.5435 C.3     1  UNL1       -0.0081
      2 C           5.7603   -1.8768    1.0062 C.2     1  UNL1       -0.0791
      3 C           4.5250   -1.4587    0.6479 C.2     1  UNL1       -0.0568
      4 C           4.6240   -0.2243   -0.0501 C.ar    1  UNL1       -0.0066
      5 C           5.9941    0.1318   -0.1338 C.ar    1  UNL1       -0.0289
      6 C           6.1946    1.3026   -0.8091 C.ar    1  UNL1       -0.0197
      7 S           4.6878    1.9521   -1.3412 S.2     1  UNL1       -0.0953
      8 C           3.7593    0.6553   -0.6464 C.ar    1  UNL1        0.0333
      9 C           2.3218    0.6321   -0.7494 C.ar    1  UNL1        0.0276
     10 C           1.5531    1.0246   -1.8197 C.ar    1  UNL1       -0.0387
     11 C           0.1411    0.8841   -1.5942 C.ar    1  UNL1       -0.0096
     12 C          -0.9202    1.1806   -2.4701 C.ar    1  UNL1       -0.0528
     13 C          -2.2444    0.9784   -2.0807 C.ar    1  UNL1       -0.0513
     14 C          -2.5954    0.4810   -0.8224 C.ar    1  UNL1        0.0098
     15 C          -3.9959    0.3106   -0.5259 C.ar    1  UNL1        0.0793
     16 N          -4.9260    0.6296   -1.4581 N.ar    1  UNL1       -0.2543
     17 C          -6.2448    0.4752   -1.1948 C.ar    1  UNL1        0.0283
     18 C          -6.7439   -0.0015   -0.0034 C.ar    1  UNL1       -0.0430
     19 C          -5.8318   -0.3410    0.9799 C.ar    1  UNL1       -0.0505
     20 C          -4.4456   -0.1883    0.7288 C.ar    1  UNL1        0.0092
     21 C          -3.3927   -0.4901    1.6307 C.ar    1  UNL1       -0.0011
     22 C          -3.6107   -0.9834    2.8981 C.ar    1  UNL1       -0.0160
     23 S          -2.1484   -1.2439    3.7416 S.2     1  UNL1       -0.1038
     24 C          -1.2172   -0.6946    2.4088 C.ar    1  UNL1       -0.0160
     25 C          -1.9838   -0.3170    1.3282 C.ar    1  UNL1       -0.0014
     26 C          -1.5105    0.1758    0.0869 C.ar    1  UNL1        0.0067
     27 C          -0.1555    0.3820   -0.3177 C.ar    1  UNL1        0.0283
     28 S           1.3314    0.1118    0.5291 S.2     1  UNL1       -0.0871
     29 H           7.3775   -0.4779    1.3979 H       1  UNL1        0.0356
     30 H           7.5299   -1.3753   -0.1521 H       1  UNL1        0.0356
     31 H           5.9763   -2.7873    1.5451 H       1  UNL1        0.0575
     32 H           3.6035   -1.9850    0.8523 H       1  UNL1        0.0621
     33 H           7.1219    1.8134   -1.0274 H       1  UNL1        0.0696
     34 H           1.9718    1.3956   -2.7478 H       1  UNL1        0.0635
     35 H          -0.7133    1.5714   -3.4641 H       1  UNL1        0.0624
     36 H          -3.0200    1.2270   -2.8066 H       1  UNL1        0.0624
     37 H          -6.9097    0.7589   -2.0060 H       1  UNL1        0.0830
     38 H          -7.8109   -0.1051    0.1541 H       1  UNL1        0.0633
     39 H          -6.1976   -0.7190    1.9287 H       1  UNL1        0.0625
     40 H          -4.5419   -1.2119    3.3957 H       1  UNL1        0.0700
     41 H          -0.1502   -0.6988    2.5475 H       1  UNL1        0.0700
@<TRIPOS>BOND
     1     1     2    1
     2     2     3    2
     3     3     4    1
     4     4     5   ar
     5     5     6   ar
     6     6     7   ar
     7     7     8   ar
     8     8     9    1
     9     9    10   ar
    10    10    11   ar
    11    11    12   ar
    12    12    13   ar
    13    13    14   ar
    14    14    15   ar
    15    15    16   ar
    16    16    17   ar
    17    17    18   ar
    18    18    19   ar
    19    19    20   ar
    20    20    21   ar
    21    21    22   ar
    22    22    23   ar
    23    23    24   ar
    24    24    25   ar
    25    25    26   ar
    26    26    27   ar
    27    27    28   ar
    28     5     1    1
    29    28     9   ar
    30     8     4   ar
    31    27    11   ar
    32    26    14   ar
    33    20    15   ar
    34    25    21   ar
    35     1    29    1
    36     1    30    1
    37     2    31    1
    38     3    32    1
    39     6    33    1
    40    10    34    1
    41    12    35    1
    42    13    36    1
    43    17    37    1
    44    18    38    1
    45    19    39    1
    46    22    40    1
    47    24    41    1
