@<TRIPOS>MOLECULE
*****
 42 48 0 0 0
SMALL
GASTEIGER

@<TRIPOS>ATOM
      1 C          -6.6019   -0.1107   -0.5466 C.3     1  UNL1       -0.0081
      2 C          -5.6875    0.0627   -1.7641 C.2     1  UNL1       -0.0791
      3 C          -4.3828    0.0432   -1.4072 C.2     1  UNL1       -0.0568
      4 C          -4.2850   -0.1328   -0.0030 C.ar    1  UNL1       -0.0070
      5 C          -5.5879   -0.2285    0.5397 C.ar    1  UNL1       -0.0289
      6 C          -5.5780   -0.4003    1.8964 C.ar    1  UNL1       -0.0197
      7 S          -3.9522   -0.4354    2.4862 S.2     1  UNL1       -0.0958
      8 C          -3.2724   -0.2345    0.9069 C.ar    1  UNL1        0.0274
      9 C          -1.8399   -0.1636    0.7317 C.ar    1  UNL1        0.0006
     10 C          -1.1338    1.0096    0.4078 C.ar    1  UNL1       -0.0451
     11 C           0.2927    1.0896    0.2116 C.ar    1  UNL1       -0.0160
     12 C           0.8157    2.3413   -0.1010 C.ar    1  UNL1       -0.0534
     13 C           2.1799    2.5318   -0.3122 C.ar    1  UNL1       -0.0534
     14 C           3.0907    1.4775   -0.2142 C.ar    1  UNL1       -0.0166
     15 C           4.4539    1.7497   -0.4364 C.ar    1  UNL1       -0.0458
     16 C           5.4309    0.7365   -0.3472 C.ar    1  UNL1       -0.0102
     17 C           6.8531    0.7822   -0.5295 C.ar    1  UNL1       -0.0470
     18 C           7.4528   -0.4418   -0.3469 C.ar    1  UNL1       -0.0232
     19 S           6.3187   -1.6535    0.0447 S.2     1  UNL1       -0.0966
     20 C           4.9999   -0.5455   -0.0280 C.ar    1  UNL1        0.0199
     21 C           3.6347   -0.8292    0.1962 C.ar    1  UNL1       -0.0391
     22 C           2.6407    0.1761    0.1035 C.ar    1  UNL1       -0.0084
     23 C           1.2104   -0.0265    0.3135 C.ar    1  UNL1        0.0006
     24 C           0.4456   -1.2047    0.6238 C.ar    1  UNL1        0.0287
     25 C           0.8611   -2.5055    0.7841 C.ar    1  UNL1        0.1000
     26 O          -0.1990   -3.3243    1.0571 O.2     1  UNL1       -0.4698
     27 C          -1.3181   -2.5511    1.0721 C.ar    1  UNL1        0.1000
     28 C          -0.9783   -1.2483    0.8161 C.ar    1  UNL1        0.0287
     29 H          -7.2059   -1.0174   -0.6401 H       1  UNL1        0.0356
     30 H          -7.2420    0.7657   -0.4133 H       1  UNL1        0.0356
     31 H          -6.0551    0.1800   -2.7727 H       1  UNL1        0.0575
     32 H          -3.5397    0.1401   -2.0769 H       1  UNL1        0.0621
     33 H          -6.4107   -0.5029    2.5780 H       1  UNL1        0.0696
     34 H          -1.7227    1.9244    0.3055 H       1  UNL1        0.0630
     35 H           0.1628    3.2088   -0.1888 H       1  UNL1        0.0624
     36 H           2.5242    3.5363   -0.5548 H       1  UNL1        0.0624
     37 H           4.7777    2.7591   -0.6816 H       1  UNL1        0.0630
     38 H           7.4059    1.6785   -0.7829 H       1  UNL1        0.0629
     39 H           8.5041   -0.6829   -0.4240 H       1  UNL1        0.0694
     40 H           3.3820   -1.8469    0.4493 H       1  UNL1        0.0635
     41 H           1.7991   -3.0335    0.7407 H       1  UNL1        0.1036
     42 H          -2.2437   -3.0732    1.2711 H       1  UNL1        0.1036
@<TRIPOS>BOND
     1     1     2    1
     2     2     3    2
     3     3     4    1
     4     4     5   ar
     5     5     6   ar
     6     6     7   ar
     7     7     8   ar
     8     8     9    1
     9     9    10   ar
    10    10    11   ar
    11    11    12   ar
    12    12    13   ar
    13    13    14   ar
    14    14    15   ar
    15    15    16   ar
    16    16    17   ar
    17    17    18   ar
    18    18    19   ar
    19    19    20   ar
    20    20    21   ar
    21    21    22   ar
    22    22    23   ar
    23    23    24   ar
    24    24    25   ar
    25    25    26   ar
    26    26    27   ar
    27    27    28   ar
    28     5     1    1
    29    28     9   ar
    30     8     4   ar
    31    23    11   ar
    32    28    24   ar
    33    22    14   ar
    34    20    16   ar
    35     1    29    1
    36     1    30    1
    37     2    31    1
    38     3    32    1
    39     6    33    1
    40    10    34    1
    41    12    35    1
    42    13    36    1
    43    15    37    1
    44    17    38    1
    45    18    39    1
    46    21    40    1
    47    25    41    1
    48    27    42    1
