@<TRIPOS>MOLECULE
*****
 41 47 0 0 0
SMALL
GASTEIGER

@<TRIPOS>ATOM
      1 C           6.8460   -0.3956    0.2497 C.3     1  UNL1        0.0000
      2 C           5.9595   -1.6379    0.3877 C.2     1  UNL1        0.0000
      3 C           4.6469   -1.3157    0.3303 C.2     1  UNL1        0.0000
      4 C           4.5166    0.0864    0.1565 C.ar    1  UNL1        0.0000
      5 C           5.8074    0.6634    0.1040 C.ar    1  UNL1        0.0000
      6 C           5.7680    2.0203   -0.0620 C.ar    1  UNL1        0.0000
      7 S           4.1303    2.5669   -0.1606 S.2     1  UNL1        0.0000
      8 C           3.4842    0.9727    0.0401 C.ar    1  UNL1        0.0000
      9 C           2.0499    0.7554    0.0166 C.ar    1  UNL1        0.0000
     10 C           1.4090    0.0961   -1.0436 C.ar    1  UNL1        0.0000
     11 C           0.0101   -0.1423   -1.0936 C.ar    1  UNL1        0.0000
     12 C          -0.5216   -0.7977   -2.1931 C.ar    1  UNL1        0.0000
     13 N          -1.8266   -1.0902   -2.3706 N.ar    1  UNL1        0.0000
     14 C          -2.7003   -0.7271   -1.4255 C.ar    1  UNL1        0.0000
     15 C          -4.0315   -1.0501   -1.6572 C.ar    1  UNL1        0.0000
     16 C          -5.0161   -0.7178   -0.7392 C.ar    1  UNL1        0.0000
     17 C          -6.4498   -1.0122   -0.8872 C.2     1  UNL1        0.0000
     18 C          -7.2007   -0.5846    0.1442 C.2     1  UNL1        0.0000
     19 SI         -6.1937    0.2704    1.4832 Si      1  UNL1        0.0000
     20 C          -4.6641   -0.0458    0.4404 C.ar    1  UNL1        0.0000
     21 C          -3.3374    0.2873    0.6928 C.ar    1  UNL1        0.0000
     22 C          -2.3178   -0.0472   -0.2385 C.ar    1  UNL1        0.0000
     23 C          -0.9112    0.2490   -0.0779 C.ar    1  UNL1        0.0000
     24 C          -0.2785    0.9263    1.0440 C.ar    1  UNL1        0.0000
     25 N          -0.8889    1.4002    2.1463 N.ar    1  UNL1        0.0000
     26 S           0.2665    2.0704    3.1177 S.2     1  UNL1        0.0000
     27 N           1.6169    1.7987    2.2100 N.ar    1  UNL1        0.0000
     28 C           1.2211    1.1762    1.0854 C.ar    1  UNL1        0.0000
     29 H           7.4814   -0.4681   -0.6372 H       1  UNL1        0.0000
     30 H           7.4535   -0.2499    1.1471 H       1  UNL1        0.0000
     31 H           6.3508   -2.6356    0.5210 H       1  UNL1        0.0000
     32 H           3.8216   -2.0088    0.4120 H       1  UNL1        0.0000
     33 H           6.5856    2.7236   -0.1338 H       1  UNL1        0.0000
     34 H           2.0321   -0.2412   -1.8755 H       1  UNL1        0.0000
     35 H           0.1110   -1.1296   -3.0146 H       1  UNL1        0.0000
     36 H          -4.2946   -1.5704   -2.5743 H       1  UNL1        0.0000
     37 H          -6.8356   -1.5269   -1.7572 H       1  UNL1        0.0000
     38 H          -8.2697   -0.6936    0.2442 H       1  UNL1        0.0000
     39 H          -6.5296    1.7115    1.5973 H       1  UNL1        0.0000
     40 H          -6.1959   -0.4949    2.7548 H       1  UNL1        0.0000
     41 H          -3.1051    0.8079    1.6163 H       1  UNL1        0.0000
@<TRIPOS>BOND
     1     1     2    1
     2     2     3    2
     3     3     4    1
     4     4     5   ar
     5     5     6   ar
     6     6     7   ar
     7     7     8   ar
     8     8     9    1
     9     9    10   ar
    10    10    11   ar
    11    11    12   ar
    12    12    13   ar
    13    13    14   ar
    14    14    15   ar
    15    15    16   ar
    16    16    17    1
    17    17    18    2
    18    18    19    1
    19    19    20    1
    20    20    21   ar
    21    21    22   ar
    22    22    23   ar
    23    23    24   ar
    24    24    25   ar
    25    25    26   ar
    26    26    27   ar
    27    27    28   ar
    28     5     1    1
    29    28     9   ar
    30     8     4   ar
    31    23    11   ar
    32    28    24   ar
    33    22    14   ar
    34    20    16   ar
    35     1    29    1
    36     1    30    1
    37     2    31    1
    38     3    32    1
    39     6    33    1
    40    10    34    1
    41    12    35    1
    42    15    36    1
    43    17    37    1
    44    18    38    1
    45    19    39    1
    46    19    40    1
    47    21    41    1
