@<TRIPOS>MOLECULE
*****
 39 45 0 0 0
SMALL
GASTEIGER

@<TRIPOS>ATOM
      1 C          -6.4518   -0.3806   -0.9894 C.3     1  UNL1       -0.0081
      2 C          -5.3151   -0.8212   -1.9140 C.2     1  UNL1       -0.0791
      3 C          -4.1142   -0.7258   -1.2990 C.2     1  UNL1       -0.0568
      4 C          -4.2956   -0.2362    0.0232 C.ar    1  UNL1       -0.0057
      5 C          -5.6821   -0.0321    0.2380 C.ar    1  UNL1       -0.0288
      6 C          -5.9598    0.4144    1.4994 C.ar    1  UNL1       -0.0196
      7 S          -4.5038    0.5738    2.4118 S.2     1  UNL1       -0.0943
      8 C          -3.4970    0.0579    1.0957 C.ar    1  UNL1        0.0429
      9 C          -2.0699   -0.0027    1.2264 C.ar    1  UNL1        0.0563
     10 C          -1.2771   -0.2252    2.3405 C.ar    1  UNL1       -0.0098
     11 C           0.0755   -0.1819    1.9290 C.ar    1  UNL1        0.0912
     12 N           1.2025   -0.3487    2.6565 N.ar    1  UNL1       -0.2527
     13 C           2.3571   -0.2405    1.9500 C.ar    1  UNL1        0.0382
     14 C           2.4874    0.0214    0.5698 C.ar    1  UNL1        0.0303
     15 C           1.2893    0.1838   -0.1300 C.ar    1  UNL1        0.0984
     16 N           1.1677    0.4399   -1.4536 N.ar    1  UNL1       -0.2522
     17 C           2.3205    0.5479   -2.1499 C.ar    1  UNL1        0.0361
     18 C           3.6017    0.4159   -1.6158 C.ar    1  UNL1        0.0031
     19 C           4.7361    0.5531   -2.4639 C.ar    1  UNL1       -0.0504
     20 C           6.0619    0.4375   -2.0218 C.ar    1  UNL1       -0.0329
     21 C           6.2305    0.1689   -0.6486 C.ar    1  UNL1        0.1005
     22 N           7.4136    0.0231   -0.0340 N.ar    1  UNL1       -0.1908
     23 S           7.0826   -0.2764    1.5613 S.2     1  UNL1        0.1165
     24 N           5.4270   -0.2346    1.5414 N.ar    1  UNL1       -0.1901
     25 C           5.0446    0.0181    0.2768 C.ar    1  UNL1        0.1083
     26 C           3.6894    0.1440   -0.2137 C.ar    1  UNL1        0.0224
     27 C           0.0899    0.0774    0.5695 C.ar    1  UNL1        0.0917
     28 N          -1.2164    0.1910    0.1649 N.ar    1  UNL1       -0.3508
     29 H          -7.1501   -1.2032   -0.8122 H       1  UNL1        0.0356
     30 H          -6.9757    0.4859   -1.4021 H       1  UNL1        0.0356
     31 H          -5.4724   -1.1761   -2.9217 H       1  UNL1        0.0575
     32 H          -3.1668   -1.0026   -1.7382 H       1  UNL1        0.0621
     33 H          -6.9159    0.6491    1.9455 H       1  UNL1        0.0696
     34 H          -1.6254   -0.4096    3.3474 H       1  UNL1        0.0660
     35 H           3.2350   -0.3812    2.5754 H       1  UNL1        0.0836
     36 H           2.1724    0.7553   -3.2083 H       1  UNL1        0.0836
     37 H           4.5838    0.7613   -3.5253 H       1  UNL1        0.0625
     38 H           6.9085    0.5466   -2.6891 H       1  UNL1        0.0640
     39 H          -1.4880    0.4122   -0.7828 H       1  UNL1        0.1660
@<TRIPOS>BOND
     1     1     2    1
     2     2     3    2
     3     3     4    1
     4     4     5   ar
     5     5     6   ar
     6     6     7   ar
     7     7     8   ar
     8     8     9    1
     9     9    10   ar
    10    10    11   ar
    11    11    12   ar
    12    12    13   ar
    13    13    14   ar
    14    14    15   ar
    15    15    16   ar
    16    16    17   ar
    17    17    18   ar
    18    18    19   ar
    19    19    20   ar
    20    20    21   ar
    21    21    22   ar
    22    22    23   ar
    23    23    24   ar
    24    24    25   ar
    25    25    26   ar
    26    15    27   ar
    27    27    28   ar
    28     5     1    1
    29    28     9   ar
    30     8     4   ar
    31    27    11   ar
    32    26    14   ar
    33    26    18   ar
    34    25    21   ar
    35     1    29    1
    36     1    30    1
    37     2    31    1
    38     3    32    1
    39     6    33    1
    40    10    34    1
    41    13    35    1
    42    17    36    1
    43    19    37    1
    44    20    38    1
    45    28    39    1
