@<TRIPOS>MOLECULE
*****
 46 53 0 0 0
SMALL
GASTEIGER

@<TRIPOS>ATOM
      1 C          -6.6401    0.0229   -1.1351 C.3     1  UNL1        0.0000
      2 C          -5.6195   -0.7415   -1.9841 C.2     1  UNL1        0.0000
      3 C          -4.3660   -0.5930   -1.4980 C.2     1  UNL1        0.0000
      4 C          -4.4046    0.2325   -0.3437 C.ar    1  UNL1        0.0000
      5 C          -5.7446    0.6148   -0.1011 C.ar    1  UNL1        0.0000
      6 C          -5.8684    1.4136    1.0006 C.ar    1  UNL1        0.0000
      7 S          -4.3245    1.6785    1.7291 S.2     1  UNL1        0.0000
      8 C          -3.4806    0.7210    0.5411 C.ar    1  UNL1        0.0000
      9 C          -2.0652    0.5237    0.6118 C.ar    1  UNL1        0.0000
     10 C          -1.2736    1.5975    0.4065 C.ar    1  UNL1        0.0000
     11 C           0.1999    1.5218    0.3770 C.ar    1  UNL1        0.0000
     12 N           0.8019    2.7236    0.2206 N.ar    1  UNL1        0.0000
     13 C           2.1446    2.7301    0.0812 C.ar    1  UNL1        0.0000
     14 C           2.9378    1.5840   -0.0229 C.ar    1  UNL1        0.0000
     15 C           4.3618    1.7371   -0.2411 C.ar    1  UNL1        0.0000
     16 S           5.3531    3.1677   -0.3005 S.2     1  UNL1        0.0000
     17 C           6.7892    2.2779   -0.6017 C.ar    1  UNL1        0.0000
     18 C           6.5663    0.9214   -0.6800 C.ar    1  UNL1        0.0000
     19 C           5.2035    0.6594   -0.4678 C.ar    1  UNL1        0.0000
     20 C           4.5796   -0.6119   -0.5224 C.ar    1  UNL1        0.0000
     21 C           5.1115   -1.8209   -0.8424 C.ar    1  UNL1        0.0000
     22 O           4.0796   -2.7181   -0.8822 O.2     1  UNL1        0.0000
     23 C           2.9309   -2.0317   -0.5781 C.ar    1  UNL1        0.0000
     24 C           3.2012   -0.7147   -0.2687 C.ar    1  UNL1        0.0000
     25 C           2.2743    0.3147    0.0702 C.ar    1  UNL1        0.0000
     26 C           0.8850    0.2899    0.4166 C.ar    1  UNL1        0.0000
     27 C           0.0736   -0.8721    0.8629 C.ar    1  UNL1        0.0000
     28 C           0.5308   -2.0087    1.4297 C.2     1  UNL1        0.0000
     29 SI         -0.8600   -3.1788    1.8795 Si      1  UNL1        0.0000
     30 C          -2.0502   -1.8524    1.3529 C.2     1  UNL1        0.0000
     31 C          -1.4085   -0.7519    0.9063 C.ar    1  UNL1        0.0000
     32 H          -7.3716   -0.6615   -0.6969 H       1  UNL1        0.0000
     33 H          -7.1412    0.7924   -1.7288 H       1  UNL1        0.0000
     34 H          -5.8839   -1.3181   -2.8578 H       1  UNL1        0.0000
     35 H          -3.4674   -1.0270   -1.9136 H       1  UNL1        0.0000
     36 H          -6.7581    1.8550    1.4269 H       1  UNL1        0.0000
     37 H          -1.6863    2.5810    0.2000 H       1  UNL1        0.0000
     38 H           2.5628    3.7310    0.0128 H       1  UNL1        0.0000
     39 H           7.7287    2.8015   -0.7167 H       1  UNL1        0.0000
     40 H           7.3451    0.1967   -0.8795 H       1  UNL1        0.0000
     41 H           6.0874   -2.2061   -1.0995 H       1  UNL1        0.0000
     42 H           2.0330   -2.6270   -0.6552 H       1  UNL1        0.0000
     43 H           1.5470   -2.2820    1.6596 H       1  UNL1        0.0000
     44 H          -0.9101   -3.4580    3.3341 H       1  UNL1        0.0000
     45 H          -0.8924   -4.3637    0.9890 H       1  UNL1        0.0000
     46 H          -3.1119   -1.9679    1.5094 H       1  UNL1        0.0000
@<TRIPOS>BOND
     1     1     2    1
     2     2     3    2
     3     3     4    1
     4     4     5   ar
     5     5     6   ar
     6     6     7   ar
     7     7     8   ar
     8     8     9    1
     9     9    10   ar
    10    10    11   ar
    11    11    12   ar
    12    12    13   ar
    13    13    14   ar
    14    14    15   ar
    15    15    16   ar
    16    16    17   ar
    17    17    18   ar
    18    18    19   ar
    19    19    20   ar
    20    20    21   ar
    21    21    22   ar
    22    22    23   ar
    23    23    24   ar
    24    24    25   ar
    25    25    26   ar
    26    26    27   ar
    27    27    28    2
    28    28    29    1
    29    29    30    1
    30    30    31    2
    31     5     1    1
    32    31     9   ar
    33     8     4   ar
    34    26    11   ar
    35    31    27   ar
    36    25    14   ar
    37    19    15   ar
    38    24    20   ar
    39     1    32    1
    40     1    33    1
    41     2    34    1
    42     3    35    1
    43     6    36    1
    44    10    37    1
    45    13    38    1
    46    17    39    1
    47    18    40    1
    48    21    41    1
    49    23    42    1
    50    28    43    1
    51    29    44    1
    52    29    45    1
    53    30    46    1
