@<TRIPOS>MOLECULE
*****
 46 53 0 0 0
SMALL
GASTEIGER

@<TRIPOS>ATOM
      1 C          -6.7704    1.3026   -1.0556 C.3     1  UNL1        0.0000
      2 C          -6.0575    0.3076   -1.9767 C.2     1  UNL1        0.0000
      3 C          -4.8110    0.0302   -1.5305 C.2     1  UNL1        0.0000
      4 C          -4.5665    0.7602   -0.3380 C.ar    1  UNL1        0.0000
      5 C          -5.7139    1.5270   -0.0283 C.ar    1  UNL1        0.0000
      6 C          -5.5589    2.2611    1.1139 C.ar    1  UNL1        0.0000
      7 S          -3.9944    1.9908    1.7961 S.2     1  UNL1        0.0000
      8 C          -3.5203    0.8852    0.5359 C.ar    1  UNL1        0.0000
      9 C          -2.2343    0.2587    0.5476 C.ar    1  UNL1        0.0000
     10 C          -1.1704    1.0405    0.2260 C.ar    1  UNL1        0.0000
     11 C           0.1358    0.4581    0.1924 C.ar    1  UNL1        0.0000
     12 O           1.3056    1.1336   -0.1165 O.2     1  UNL1        0.0000
     13 C           2.2918    0.1955   -0.0283 C.ar    1  UNL1        0.0000
     14 C           1.7754   -0.9962    0.3127 C.ar    1  UNL1        0.0000
     15 O           2.7605   -1.9360    0.3999 O.2     1  UNL1        0.0000
     16 C           3.9307   -1.2611    0.0931 C.ar    1  UNL1        0.0000
     17 C           5.2395   -1.8415    0.0563 C.ar    1  UNL1        0.0000
     18 C           6.2819   -1.0434   -0.2625 C.ar    1  UNL1        0.0000
     19 C           6.0732    0.3744   -0.5609 C.ar    1  UNL1        0.0000
     20 C           7.0497    1.2425   -0.8870 C.2     1  UNL1        0.0000
     21 SI          6.3429    2.9581   -1.1884 Si      1  UNL1        0.0000
     22 C           4.6412    2.2820   -0.8123 C.2     1  UNL1        0.0000
     23 C           4.7090    0.9714   -0.5206 C.ar    1  UNL1        0.0000
     24 C           3.6650    0.0807   -0.1804 C.ar    1  UNL1        0.0000
     25 C           0.4020   -0.8805    0.4647 C.ar    1  UNL1        0.0000
     26 C          -0.6400   -1.7697    0.8050 C.ar    1  UNL1        0.0000
     27 C          -0.5593   -3.0791    1.0996 C.2     1  UNL1        0.0000
     28 SI         -2.2481   -3.7695    1.4900 Si      1  UNL1        0.0000
     29 C          -2.9669   -2.0671    1.1897 C.2     1  UNL1        0.0000
     30 C          -2.0092   -1.1783    0.8486 C.ar    1  UNL1        0.0000
     31 H          -7.0175    2.2221   -1.5934 H       1  UNL1        0.0000
     32 H          -7.6703    0.8563   -0.6236 H       1  UNL1        0.0000
     33 H          -6.5068   -0.1083   -2.8661 H       1  UNL1        0.0000
     34 H          -4.1024   -0.6390   -1.9985 H       1  UNL1        0.0000
     35 H          -6.2570    2.9326    1.5935 H       1  UNL1        0.0000
     36 H          -1.2687    2.0929   -0.0175 H       1  UNL1        0.0000
     37 H           5.3634   -2.8936    0.2821 H       1  UNL1        0.0000
     38 H           7.2907   -1.4404   -0.3022 H       1  UNL1        0.0000
     39 H           8.1057    1.0453   -0.9787 H       1  UNL1        0.0000
     40 H           6.8063    3.9359   -0.1749 H       1  UNL1        0.0000
     41 H           6.4905    3.3790   -2.6023 H       1  UNL1        0.0000
     42 H           3.7570    2.8995   -0.8387 H       1  UNL1        0.0000
     43 H           0.3314   -3.6874    1.1261 H       1  UNL1        0.0000
     44 H          -2.7044   -4.7546    0.4802 H       1  UNL1        0.0000
     45 H          -2.3765   -4.1945    2.9043 H       1  UNL1        0.0000
     46 H          -4.0245   -1.8837    1.2974 H       1  UNL1        0.0000
@<TRIPOS>BOND
     1     1     2    1
     2     2     3    2
     3     3     4    1
     4     4     5   ar
     5     5     6   ar
     6     6     7   ar
     7     7     8   ar
     8     8     9    1
     9     9    10   ar
    10    10    11   ar
    11    11    12   ar
    12    12    13   ar
    13    13    14   ar
    14    14    15   ar
    15    15    16   ar
    16    16    17   ar
    17    17    18   ar
    18    18    19   ar
    19    19    20    2
    20    20    21    1
    21    21    22    1
    22    22    23    2
    23    23    24   ar
    24    14    25   ar
    25    25    26   ar
    26    26    27    2
    27    27    28    1
    28    28    29    1
    29    29    30    2
    30     5     1    1
    31    30     9   ar
    32     8     4   ar
    33    25    11   ar
    34    30    26   ar
    35    24    13   ar
    36    24    16   ar
    37    23    19   ar
    38     1    31    1
    39     1    32    1
    40     2    33    1
    41     3    34    1
    42     6    35    1
    43    10    36    1
    44    17    37    1
    45    18    38    1
    46    20    39    1
    47    21    40    1
    48    21    41    1
    49    22    42    1
    50    27    43    1
    51    28    44    1
    52    28    45    1
    53    29    46    1
