@<TRIPOS>MOLECULE
*****
 46 53 0 0 0
SMALL
GASTEIGER

@<TRIPOS>ATOM
      1 C           7.0397    0.4324    0.5482 C.3     1  UNL1       -0.0081
      2 C           5.9248    1.4799    0.5155 C.2     1  UNL1       -0.0791
      3 C           4.7101    0.9011    0.3787 C.2     1  UNL1       -0.0567
      4 C           4.8619   -0.5095    0.3085 C.ar    1  UNL1       -0.0041
      5 C           6.2413   -0.8185    0.4069 C.ar    1  UNL1       -0.0288
      6 C           6.4832   -2.1622    0.3482 C.ar    1  UNL1       -0.0196
      7 S           5.0011   -3.0294    0.1718 S.2     1  UNL1       -0.0927
      8 C           4.0315   -1.5893    0.1746 C.ar    1  UNL1        0.0618
      9 C           2.5952   -1.6183    0.0515 C.ar    1  UNL1        0.1439
     10 C           1.7637   -2.7144   -0.0847 C.ar    1  UNL1       -0.0009
     11 C           0.4607   -2.1708   -0.1622 C.ar    1  UNL1        0.0591
     12 S          -1.1696   -2.6642   -0.3297 S.2     1  UNL1       -0.0843
     13 C          -1.7396   -1.0032   -0.2782 C.ar    1  UNL1        0.0324
     14 C          -0.6728   -0.0963   -0.1334 C.ar    1  UNL1        0.0404
     15 C           0.5451   -0.8329   -0.0747 C.ar    1  UNL1        0.1510
     16 O           1.8518   -0.4603    0.0581 O.2     1  UNL1       -0.4531
     17 C          -0.9416    1.3059   -0.0718 C.ar    1  UNL1       -0.0055
     18 C           0.1490    2.1994    0.0744 C.ar    1  UNL1       -0.0533
     19 C          -0.0410    3.5756    0.1412 C.ar    1  UNL1       -0.0611
     20 C          -1.3230    4.0862    0.0633 C.ar    1  UNL1       -0.0611
     21 C          -2.4101    3.2182   -0.0811 C.ar    1  UNL1       -0.0534
     22 C          -2.2690    1.8045   -0.1542 C.ar    1  UNL1       -0.0094
     23 C          -3.3629    0.8972   -0.3014 C.ar    1  UNL1       -0.0084
     24 C          -4.7458    1.3675   -0.3904 C.ar    1  UNL1       -0.0528
     25 C          -5.9088    0.5793   -0.5362 C.ar    1  UNL1       -0.0520
     26 C          -5.5696   -0.7544   -0.5875 C.ar    1  UNL1        0.0000
     27 C          -6.4786   -1.7704   -0.7255 C.ar    1  UNL1        0.0094
     28 N          -5.7587   -2.9380   -0.7345 N.ar    1  UNL1       -0.3659
     29 C          -4.4116   -2.6639   -0.6040 C.ar    1  UNL1        0.0100
     30 C          -4.2496   -1.2992   -0.5084 C.ar    1  UNL1        0.0082
     31 C          -3.0738   -0.5203   -0.3621 C.ar    1  UNL1        0.0063
     32 H           7.7294    0.5718   -0.2889 H       1  UNL1        0.0356
     33 H           7.5781    0.4665    1.4993 H       1  UNL1        0.0356
     34 H           6.1021    2.5422    0.5931 H       1  UNL1        0.0575
     35 H           3.7642    1.4214    0.3293 H       1  UNL1        0.0621
     36 H           7.4264   -2.6881    0.3970 H       1  UNL1        0.0696
     37 H           2.0461   -3.7561   -0.1234 H       1  UNL1        0.0667
     38 H           1.1700    1.8343    0.1390 H       1  UNL1        0.0624
     39 H           0.8109    4.2404    0.2534 H       1  UNL1        0.0618
     40 H          -1.4880    5.1593    0.1139 H       1  UNL1        0.0618
     41 H          -3.3859    3.6908   -0.1353 H       1  UNL1        0.0624
     42 H          -4.9447    2.4370   -0.3430 H       1  UNL1        0.0624
     43 H          -6.9063    0.9892   -0.5961 H       1  UNL1        0.0624
     44 H          -7.5561   -1.7790   -0.8172 H       1  UNL1        0.0813
     45 H          -6.1528   -3.8656   -0.8235 H       1  UNL1        0.1648
     46 H          -3.7259   -3.4959   -0.5958 H       1  UNL1        0.0813
@<TRIPOS>BOND
     1     1     2    1
     2     2     3    2
     3     3     4    1
     4     4     5   ar
     5     5     6   ar
     6     6     7   ar
     7     7     8   ar
     8     8     9    1
     9     9    10   ar
    10    10    11   ar
    11    11    12   ar
    12    12    13   ar
    13    13    14   ar
    14    14    15   ar
    15    15    16   ar
    16    14    17   ar
    17    17    18   ar
    18    18    19   ar
    19    19    20   ar
    20    20    21   ar
    21    21    22   ar
    22    22    23   ar
    23    23    24   ar
    24    24    25   ar
    25    25    26   ar
    26    26    27   ar
    27    27    28   ar
    28    28    29   ar
    29    29    30   ar
    30    30    31   ar
    31     5     1    1
    32    16     9   ar
    33    22    17   ar
    34    31    23   ar
    35     8     4   ar
    36    15    11   ar
    37    30    26   ar
    38    31    13   ar
    39     1    32    1
    40     1    33    1
    41     2    34    1
    42     3    35    1
    43     6    36    1
    44    10    37    1
    45    18    38    1
    46    19    39    1
    47    20    40    1
    48    21    41    1
    49    24    42    1
    50    25    43    1
    51    27    44    1
    52    28    45    1
    53    29    46    1
