@<TRIPOS>MOLECULE
*****
 42 49 0 0 0
SMALL
GASTEIGER

@<TRIPOS>ATOM
      1 C           7.3934    0.5828   -0.2635 C.3     1  UNL1       -0.0081
      2 C           6.4445    1.5454   -0.9698 C.2     1  UNL1       -0.0791
      3 C           5.1524    1.2071   -0.7585 C.2     1  UNL1       -0.0568
      4 C           5.0816    0.0471    0.0650 C.ar    1  UNL1       -0.0066
      5 C           6.4140   -0.3428    0.3726 C.ar    1  UNL1       -0.0289
      6 C           6.4757   -1.4528    1.1636 C.ar    1  UNL1       -0.0197
      7 S           4.8923   -2.0122    1.5257 S.2     1  UNL1       -0.0953
      8 C           4.1005   -0.7487    0.6090 C.ar    1  UNL1        0.0333
      9 C           2.6477   -0.6909    0.5351 C.ar    1  UNL1        0.0281
     10 C           1.7527   -1.5612    1.1342 C.ar    1  UNL1       -0.0320
     11 C           0.3970   -1.2133    0.8566 C.ar    1  UNL1        0.0282
     12 S          -1.1503   -1.8949    1.3072 S.2     1  UNL1       -0.0870
     13 C          -2.0323   -0.6819    0.4249 C.ar    1  UNL1        0.0300
     14 C          -1.0941    0.1597   -0.1533 C.ar    1  UNL1        0.0148
     15 C          -1.5199    1.2608   -0.9460 C.ar    1  UNL1        0.0297
     16 C          -0.8554    2.2355   -1.6249 C.ar    1  UNL1        0.1000
     17 O          -1.7891    3.0430   -2.2199 O.2     1  UNL1       -0.4698
     18 C          -3.0248    2.5481   -1.8947 C.ar    1  UNL1        0.1000
     19 C          -2.9058    1.4306   -1.0971 C.ar    1  UNL1        0.0282
     20 C          -3.9528    0.6501   -0.5646 C.ar    1  UNL1       -0.0055
     21 C          -5.3530    0.9300   -0.7942 C.ar    1  UNL1       -0.0527
     22 C          -6.3947    0.1535   -0.2644 C.ar    1  UNL1       -0.0529
     23 C          -5.9205   -0.9084    0.5014 C.ar    1  UNL1       -0.0102
     24 C          -6.7966   -1.7794    1.1020 C.ar    1  UNL1       -0.0166
     25 S          -5.9657   -2.9886    1.9804 S.2     1  UNL1       -0.1039
     26 C          -4.4309   -2.3393    1.5518 C.ar    1  UNL1       -0.0160
     27 C          -4.5206   -1.2202    0.7537 C.ar    1  UNL1       -0.0021
     28 C          -3.4406   -0.4594    0.2359 C.ar    1  UNL1        0.0054
     29 C           0.2705   -0.1070    0.0666 C.ar    1  UNL1        0.0354
     30 S           1.8306    0.5344   -0.3553 S.2     1  UNL1       -0.0865
     31 H           7.9997    1.1075    0.4799 H       1  UNL1        0.0356
     32 H           8.0330    0.0660   -0.9843 H       1  UNL1        0.0356
     33 H           6.7778    2.3859   -1.5602 H       1  UNL1        0.0575
     34 H           4.3085    1.7467   -1.1615 H       1  UNL1        0.0621
     35 H           7.3456   -1.9663    1.5487 H       1  UNL1        0.0696
     36 H           2.0302   -2.4111    1.7452 H       1  UNL1        0.0640
     37 H           0.1727    2.5139   -1.8006 H       1  UNL1        0.1036
     38 H          -3.8544    3.1039   -2.3083 H       1  UNL1        0.1036
     39 H          -5.6331    1.7848   -1.4085 H       1  UNL1        0.0624
     40 H          -7.4383    0.3762   -0.4456 H       1  UNL1        0.0624
     41 H          -7.8778   -1.7782    1.0776 H       1  UNL1        0.0699
     42 H          -3.5696   -2.8565    1.9385 H       1  UNL1        0.0700
@<TRIPOS>BOND
     1     1     2    1
     2     2     3    2
     3     3     4    1
     4     4     5   ar
     5     5     6   ar
     6     6     7   ar
     7     7     8   ar
     8     8     9    1
     9     9    10   ar
    10    10    11   ar
    11    11    12   ar
    12    12    13   ar
    13    13    14   ar
    14    14    15   ar
    15    15    16   ar
    16    16    17   ar
    17    17    18   ar
    18    18    19   ar
    19    19    20   ar
    20    20    21   ar
    21    21    22   ar
    22    22    23   ar
    23    23    24   ar
    24    24    25   ar
    25    25    26   ar
    26    26    27   ar
    27    27    28   ar
    28    14    29   ar
    29    29    30   ar
    30     5     1    1
    31    30     9   ar
    32     8     4   ar
    33    29    11   ar
    34    28    13   ar
    35    19    15   ar
    36    28    20   ar
    37    27    23   ar
    38     1    31    1
    39     1    32    1
    40     2    33    1
    41     3    34    1
    42     6    35    1
    43    10    36    1
    44    16    37    1
    45    18    38    1
    46    21    39    1
    47    22    40    1
    48    24    41    1
    49    26    42    1
