@<TRIPOS>MOLECULE
*****
 40 47 0 0 0
SMALL
GASTEIGER

@<TRIPOS>ATOM
      1 C           6.7489    0.9189   -0.4325 C.3     1  UNL1        0.0000
      2 C           5.9499    0.4776   -1.6615 C.2     1  UNL1        0.0000
      3 C           4.6510    0.2615   -1.3522 C.2     1  UNL1        0.0000
      4 C           4.4464    0.5180    0.0291 C.ar    1  UNL1        0.0000
      5 C           5.6776    0.9152    0.6040 C.ar    1  UNL1        0.0000
      6 C           5.5695    1.1884    1.9389 C.ar    1  UNL1        0.0000
      7 S           3.9421    0.9563    2.4691 S.2     1  UNL1        0.0000
      8 C           3.3868    0.4839    0.8929 C.ar    1  UNL1        0.0000
      9 C           1.9866    0.1395    0.6892 C.ar    1  UNL1        0.0000
     10 C           0.9357    1.0024    1.0268 C.ar    1  UNL1        0.0000
     11 C          -0.4148    0.6408    0.8080 C.ar    1  UNL1        0.0000
     12 S          -1.7722    1.6192    1.2083 S.2     1  UNL1        0.0000
     13 C          -2.9176    0.4705    0.6228 C.ar    1  UNL1        0.0000
     14 C          -4.3200    0.5794    0.6230 C.ar    1  UNL1        0.0000
     15 SI         -5.3746    1.9730    1.2702 Si      1  UNL1        0.0000
     16 C          -6.8998    0.9996    0.7268 C.2     1  UNL1        0.0000
     17 C          -6.5969   -0.1804    0.1538 C.2     1  UNL1        0.0000
     18 C          -5.1541   -0.4220    0.0924 C.ar    1  UNL1        0.0000
     19 C          -4.5333   -1.5479   -0.4592 C.ar    1  UNL1        0.0000
     20 N          -5.1473   -2.6035   -1.0319 N.ar    1  UNL1        0.0000
     21 S          -3.9453   -3.6413   -1.5382 S.2     1  UNL1        0.0000
     22 N          -2.5990   -2.7942   -1.0552 N.ar    1  UNL1        0.0000
     23 C          -3.0748   -1.7055   -0.4788 C.ar    1  UNL1        0.0000
     24 C          -2.2476   -0.6460    0.1101 C.ar    1  UNL1        0.0000
     25 C          -0.8337   -0.5565    0.2444 C.ar    1  UNL1        0.0000
     26 C           0.2201   -1.4996   -0.0969 C.ar    1  UNL1        0.0000
     27 N           0.0035   -2.7062   -0.5872 N.ar    1  UNL1        0.0000
     28 S           1.5156   -3.3603   -0.7859 S.2     1  UNL1        0.0000
     29 N           2.4506   -2.1017   -0.2338 N.ar    1  UNL1        0.0000
     30 C           1.6142   -1.1078    0.1382 C.ar    1  UNL1        0.0000
     31 H           7.5395    0.1991   -0.2034 H       1  UNL1        0.0000
     32 H           7.1694    1.9175   -0.5799 H       1  UNL1        0.0000
     33 H           6.3850    0.3510   -2.6415 H       1  UNL1        0.0000
     34 H           3.8838   -0.0668   -2.0392 H       1  UNL1        0.0000
     35 H           6.3338    1.5070    2.6336 H       1  UNL1        0.0000
     36 H           1.1613    1.9758    1.4621 H       1  UNL1        0.0000
     37 H          -5.2221    3.2271    0.4929 H       1  UNL1        0.0000
     38 H          -5.3131    2.1126    2.7457 H       1  UNL1        0.0000
     39 H          -7.8904    1.3988    0.8844 H       1  UNL1        0.0000
     40 H          -7.3151   -0.8935   -0.2298 H       1  UNL1        0.0000
@<TRIPOS>BOND
     1     1     2    1
     2     2     3    2
     3     3     4    1
     4     4     5   ar
     5     5     6   ar
     6     6     7   ar
     7     7     8   ar
     8     8     9    1
     9     9    10   ar
    10    10    11   ar
    11    11    12   ar
    12    12    13   ar
    13    13    14   ar
    14    14    15    1
    15    15    16    1
    16    16    17    2
    17    17    18    1
    18    18    19   ar
    19    19    20   ar
    20    20    21   ar
    21    21    22   ar
    22    22    23   ar
    23    23    24   ar
    24    24    25   ar
    25    25    26   ar
    26    26    27   ar
    27    27    28   ar
    28    28    29   ar
    29    29    30   ar
    30     5     1    1
    31    30     9   ar
    32     8     4   ar
    33    25    11   ar
    34    30    26   ar
    35    24    13   ar
    36    18    14   ar
    37    23    19   ar
    38     1    31    1
    39     1    32    1
    40     2    33    1
    41     3    34    1
    42     6    35    1
    43    10    36    1
    44    15    37    1
    45    15    38    1
    46    16    39    1
    47    17    40    1
