@<TRIPOS>MOLECULE
*****
 42 49 0 0 0
SMALL
GASTEIGER

@<TRIPOS>ATOM
      1 C           6.5909   -1.2342    0.6269 C.3     1  UNL1       -0.0081
      2 C           5.8307   -0.3786    1.6453 C.2     1  UNL1       -0.0791
      3 C           4.5223   -0.2707    1.3194 C.2     1  UNL1       -0.0568
      4 C           4.2765   -0.9924    0.1225 C.ar    1  UNL1       -0.0070
      5 C           5.4871   -1.5812   -0.3131 C.ar    1  UNL1       -0.0289
      6 C           5.3325   -2.3079   -1.4611 C.ar    1  UNL1       -0.0197
      7 S           3.6862   -2.2576   -1.9872 S.2     1  UNL1       -0.0958
      8 C           3.1930   -1.2468   -0.6698 C.ar    1  UNL1        0.0274
      9 C           1.8112   -0.8265   -0.5641 C.ar    1  UNL1        0.0011
     10 C           0.7444   -1.6993   -0.2804 C.ar    1  UNL1       -0.0385
     11 C          -0.5999   -1.2316   -0.1509 C.ar    1  UNL1        0.0219
     12 S          -1.9773   -2.1786    0.3254 S.2     1  UNL1       -0.0845
     13 C          -3.0144   -0.8527    0.1769 C.ar    1  UNL1        0.0639
     14 C          -4.5274   -0.8541    0.4871 C.ar    1  UNL1        0.1496
     15 O          -5.3130   -1.8433    0.9954 O.2     1  UNL1       -0.4618
     16 C          -6.5779   -1.3232    1.0763 C.ar    1  UNL1        0.0932
     17 C          -6.6191   -0.0178    0.6178 C.ar    1  UNL1       -0.0155
     18 C          -5.3019    0.2468    0.2550 C.ar    1  UNL1        0.0295
     19 C          -4.6577    1.3600   -0.3373 C.ar    1  UNL1        0.0005
     20 C          -5.3416    2.4819   -0.7178 C.ar    1  UNL1       -0.0159
     21 S          -4.2736    3.5547   -1.5437 S.2     1  UNL1       -0.1038
     22 C          -2.9324    2.4725   -1.3775 C.ar    1  UNL1       -0.0160
     23 C          -3.2717    1.3769   -0.6294 C.ar    1  UNL1       -0.0013
     24 C          -2.3850    0.2797   -0.2929 C.ar    1  UNL1        0.0094
     25 C          -0.9958    0.0959   -0.3546 C.ar    1  UNL1        0.0084
     26 C           0.0914    1.0201   -0.5359 C.ar    1  UNL1        0.0293
     27 C           0.1590    2.3802   -0.5236 C.ar    1  UNL1        0.1000
     28 O           1.4621    2.7504   -0.7296 O.2     1  UNL1       -0.4698
     29 C           2.2043    1.6037   -0.8122 C.ar    1  UNL1        0.1000
     30 C           1.3990    0.5004   -0.6402 C.ar    1  UNL1        0.0287
     31 H           7.0139   -2.1225    1.1040 H       1  UNL1        0.0356
     32 H           7.3750   -0.6506    0.1368 H       1  UNL1        0.0356
     33 H           6.2956    0.0705    2.5104 H       1  UNL1        0.0575
     34 H           3.7733    0.2740    1.8775 H       1  UNL1        0.0621
     35 H           6.0703   -2.8653   -2.0209 H       1  UNL1        0.0696
     36 H           0.9496   -2.7578   -0.1241 H       1  UNL1        0.0635
     37 H          -7.3255   -1.9998    1.4676 H       1  UNL1        0.1030
     38 H          -7.4940    0.6124    0.5596 H       1  UNL1        0.0655
     39 H          -6.3871    2.7333   -0.6054 H       1  UNL1        0.0700
     40 H          -2.0157    2.7226   -1.8857 H       1  UNL1        0.0700
     41 H          -0.5225    3.2024   -0.3690 H       1  UNL1        0.1036
     42 H           3.2654    1.7542   -0.9582 H       1  UNL1        0.1036
@<TRIPOS>BOND
     1     1     2    1
     2     2     3    2
     3     3     4    1
     4     4     5   ar
     5     5     6   ar
     6     6     7   ar
     7     7     8   ar
     8     8     9    1
     9     9    10   ar
    10    10    11   ar
    11    11    12   ar
    12    12    13   ar
    13    13    14   ar
    14    14    15   ar
    15    15    16   ar
    16    16    17   ar
    17    17    18   ar
    18    18    19   ar
    19    19    20   ar
    20    20    21   ar
    21    21    22   ar
    22    22    23   ar
    23    23    24   ar
    24    24    25   ar
    25    25    26   ar
    26    26    27   ar
    27    27    28   ar
    28    28    29   ar
    29    29    30   ar
    30     5     1    1
    31    30     9   ar
    32     8     4   ar
    33    25    11   ar
    34    30    26   ar
    35    24    13   ar
    36    18    14   ar
    37    23    19   ar
    38     1    31    1
    39     1    32    1
    40     2    33    1
    41     3    34    1
    42     6    35    1
    43    10    36    1
    44    16    37    1
    45    17    38    1
    46    20    39    1
    47    22    40    1
    48    27    41    1
    49    29    42    1
