@<TRIPOS>MOLECULE
*****
 45 52 0 0 0
SMALL
GASTEIGER

@<TRIPOS>ATOM
      1 SI          1.5591    2.9893   -2.0082 Si      1  UNL1        0.0000
      2 C           2.5244    1.8214   -0.9316 C.2     1  UNL1        0.0000
      3 C           1.7153    0.9647   -0.2712 C.ar    1  UNL1        0.0000
      4 C           2.1724    0.0379    0.7828 C.ar    1  UNL1        0.0000
      5 C           1.2341   -0.6244    1.5000 C.ar    1  UNL1        0.0000
      6 C          -0.1473   -0.4721    1.1579 C.ar    1  UNL1        0.0000
      7 S          -1.3722   -1.1883    2.1078 S.2     1  UNL1        0.0000
      8 C          -2.6240   -0.7152    1.0164 C.ar    1  UNL1        0.0000
      9 C          -4.0161   -0.9419    1.1040 C.ar    1  UNL1        0.0000
     10 SI         -4.9506   -1.7450    2.4960 Si      1  UNL1        0.0000
     11 C          -6.5421   -1.4879    1.5023 C.2     1  UNL1        0.0000
     12 C          -6.3346   -0.8911    0.3131 C.2     1  UNL1        0.0000
     13 C          -4.9239   -0.5828    0.0809 C.ar    1  UNL1        0.0000
     14 C          -4.3170   -0.0452   -1.0449 C.ar    1  UNL1        0.0000
     15 C          -5.0037    0.2749   -2.1961 C.ar    1  UNL1        0.0000
     16 S          -3.9488    0.7944   -3.4550 S.2     1  UNL1        0.0000
     17 C          -2.5552    0.5886   -2.4663 C.ar    1  UNL1        0.0000
     18 C          -2.9250    0.2196   -1.2044 C.ar    1  UNL1        0.0000
     19 C          -2.0441   -0.0543   -0.0732 C.ar    1  UNL1        0.0000
     20 C          -0.6665    0.2551    0.0893 C.ar    1  UNL1        0.0000
     21 C           0.2620    1.1141   -0.6018 C.ar    1  UNL1        0.0000
     22 C          -0.0014    2.1681   -1.3994 C.2     1  UNL1        0.0000
     23 C           3.5424   -0.2062    1.1121 C.ar    1  UNL1        0.0000
     24 S           4.2144    0.2121    2.6784 S.2     1  UNL1        0.0000
     25 C           5.8118   -0.3391    2.2783 C.ar    1  UNL1        0.0000
     26 C           5.7848   -0.7959    1.0115 C.ar    1  UNL1        0.0000
     27 N           6.8294   -1.3129    0.3027 N.ar    1  UNL1        0.0000
     28 C           6.2134   -1.6013   -0.9143 C.ar    1  UNL1        0.0000
     29 C           4.8443   -1.2573   -0.8987 C.ar    1  UNL1        0.0000
     30 C           4.5628   -0.7211    0.3849 C.ar    1  UNL1        0.0000
     31 H           1.6653    4.3994   -1.5640 H       1  UNL1        0.0000
     32 H           1.7854    2.7526   -3.4541 H       1  UNL1        0.0000
     33 H           3.5930    1.9254   -0.8240 H       1  UNL1        0.0000
     34 H           1.5069   -1.3094    2.2981 H       1  UNL1        0.0000
     35 H          -4.9680   -0.9448    3.7460 H       1  UNL1        0.0000
     36 H          -4.6542   -3.1899    2.6622 H       1  UNL1        0.0000
     37 H          -7.4909   -1.8116    1.9018 H       1  UNL1        0.0000
     38 H          -7.1134   -0.6603   -0.3992 H       1  UNL1        0.0000
     39 H          -6.0633    0.2084   -2.3986 H       1  UNL1        0.0000
     40 H          -1.5778    0.7285   -2.8996 H       1  UNL1        0.0000
     41 H          -0.9623    2.5707   -1.6712 H       1  UNL1        0.0000
     42 H           6.6348   -0.2883    2.9767 H       1  UNL1        0.0000
     43 H           7.7872   -1.4417    0.6049 H       1  UNL1        0.0000
     44 H           6.8042   -2.0375   -1.7097 H       1  UNL1        0.0000
     45 H           4.1547   -1.3874   -1.7225 H       1  UNL1        0.0000
@<TRIPOS>BOND
     1     1     2    1
     2     2     3    2
     3     3     4   ar
     4     4     5   ar
     5     5     6   ar
     6     6     7   ar
     7     7     8   ar
     8     8     9   ar
     9     9    10    1
    10    10    11    1
    11    11    12    2
    12    12    13    1
    13    13    14   ar
    14    14    15   ar
    15    15    16   ar
    16    16    17   ar
    17    17    18   ar
    18    18    19   ar
    19    19    20   ar
    20    20    21   ar
    21    21    22    2
    22     4    23    1
    23    23    24   ar
    24    24    25   ar
    25    25    26   ar
    26    26    27   ar
    27    27    28   ar
    28    28    29   ar
    29    29    30   ar
    30    22     1    1
    31    30    23   ar
    32    21     3   ar
    33    30    26   ar
    34    20     6   ar
    35    19     8   ar
    36    13     9   ar
    37    18    14   ar
    38     1    31    1
    39     1    32    1
    40     2    33    1
    41     5    34    1
    42    10    35    1
    43    10    36    1
    44    11    37    1
    45    12    38    1
    46    15    39    1
    47    17    40    1
    48    22    41    1
    49    25    42    1
    50    27    43    1
    51    28    44    1
    52    29    45    1
