@<TRIPOS>MOLECULE
*****
 40 47 0 0 0
SMALL
GASTEIGER

@<TRIPOS>ATOM
      1 C          -6.5583   -1.5229   -0.8359 C.3     1  UNL1       -0.0081
      2 C          -5.4834   -2.0599   -1.7868 C.2     1  UNL1       -0.0791
      3 C          -4.2590   -1.5818   -1.4669 C.2     1  UNL1       -0.0568
      4 C          -4.3699   -0.7285   -0.3387 C.ar    1  UNL1       -0.0070
      5 C          -5.7258   -0.6729    0.0618 C.ar    1  UNL1       -0.0289
      6 C          -5.9179    0.1334    1.1494 C.ar    1  UNL1       -0.0197
      7 S          -4.4136    0.8077    1.6714 S.2     1  UNL1       -0.0957
      8 C          -3.5147    0.0246    0.4145 C.ar    1  UNL1        0.0289
      9 C          -2.0748    0.1904    0.3288 C.ar    1  UNL1        0.0185
     10 C          -1.1907   -0.8675    0.5719 C.ar    1  UNL1       -0.0370
     11 C           0.2085   -0.6856    0.4732 C.ar    1  UNL1        0.0233
     12 S           1.3957   -1.9161    0.7477 S.2     1  UNL1       -0.0870
     13 C           2.6709   -0.8511    0.4294 C.ar    1  UNL1        0.0355
     14 C           4.1870   -1.2350    0.4721 C.ar    1  UNL1        0.0343
     15 S           4.8843   -2.7412    0.8219 S.2     1  UNL1       -0.0955
     16 C           6.4780   -2.1081    0.6095 C.ar    1  UNL1       -0.0231
     17 C           6.4765   -0.7648    0.2771 C.ar    1  UNL1       -0.0463
     18 C           5.1528   -0.3058    0.2084 C.ar    1  UNL1        0.0010
     19 C           4.6727    0.9903   -0.0912 C.ar    1  UNL1        0.0287
     20 C           5.4387    2.0819   -0.3761 C.ar    1  UNL1        0.1000
     21 O           4.6020    3.1419   -0.5963 O.2     1  UNL1       -0.4698
     22 C           3.3098    2.6906   -0.4445 C.ar    1  UNL1        0.1000
     23 C           3.3171    1.3566   -0.1360 C.ar    1  UNL1        0.0293
     24 C           2.2394    0.4255    0.1221 C.ar    1  UNL1        0.0109
     25 C           0.8295    0.5166    0.1359 C.ar    1  UNL1        0.0258
     26 C          -0.0501    1.6310   -0.1471 C.ar    1  UNL1        0.1093
     27 N           0.3786    2.8260   -0.5121 N.ar    1  UNL1       -0.1901
     28 S          -1.0148    3.7142   -0.7224 S.2     1  UNL1        0.1165
     29 N          -2.1553    2.5613   -0.3572 N.ar    1  UNL1       -0.1901
     30 C          -1.4963    1.4254   -0.0415 C.ar    1  UNL1        0.1087
     31 H          -7.3009   -0.9341   -1.3814 H       1  UNL1        0.0356
     32 H          -7.0396   -2.3403   -0.2920 H       1  UNL1        0.0356
     33 H          -5.6957   -2.7298   -2.6066 H       1  UNL1        0.0575
     34 H          -3.3378   -1.8038   -1.9868 H       1  UNL1        0.0621
     35 H          -6.8343    0.3685    1.6720 H       1  UNL1        0.0696
     36 H          -1.5866   -1.8442    0.8492 H       1  UNL1        0.0636
     37 H           7.3320   -2.7586    0.7416 H       1  UNL1        0.0694
     38 H           7.3766   -0.1891    0.1047 H       1  UNL1        0.0629
     39 H           6.4950    2.2923   -0.4598 H       1  UNL1        0.1036
     40 H           2.5741    3.4629   -0.5918 H       1  UNL1        0.1036
@<TRIPOS>BOND
     1     1     2    1
     2     2     3    2
     3     3     4    1
     4     4     5   ar
     5     5     6   ar
     6     6     7   ar
     7     7     8   ar
     8     8     9    1
     9     9    10   ar
    10    10    11   ar
    11    11    12   ar
    12    12    13   ar
    13    13    14   ar
    14    14    15   ar
    15    15    16   ar
    16    16    17   ar
    17    17    18   ar
    18    18    19   ar
    19    19    20   ar
    20    20    21   ar
    21    21    22   ar
    22    22    23   ar
    23    23    24   ar
    24    24    25   ar
    25    25    26   ar
    26    26    27   ar
    27    27    28   ar
    28    28    29   ar
    29    29    30   ar
    30     5     1    1
    31    30     9   ar
    32     8     4   ar
    33    25    11   ar
    34    30    26   ar
    35    24    13   ar
    36    18    14   ar
    37    23    19   ar
    38     1    31    1
    39     1    32    1
    40     2    33    1
    41     3    34    1
    42     6    35    1
    43    10    36    1
    44    16    37    1
    45    17    38    1
    46    20    39    1
    47    22    40    1
