@<TRIPOS>MOLECULE
*****
 46 52 0 0 0
SMALL
GASTEIGER

@<TRIPOS>ATOM
      1 C           7.1599    0.2897   -0.0817 C.3     1  UNL1       -0.0081
      2 C           6.4096    1.5766   -0.4375 C.2     1  UNL1       -0.0791
      3 C           5.0775    1.4379   -0.2482 C.2     1  UNL1       -0.0568
      4 C           4.8038    0.1284    0.2268 C.ar    1  UNL1       -0.0071
      5 C           6.0237   -0.5815    0.3324 C.ar    1  UNL1       -0.0289
      6 C           5.8476   -1.8619    0.7778 C.ar    1  UNL1       -0.0197
      7 S           4.1720   -2.1740    1.0623 S.2     1  UNL1       -0.0958
      8 C           3.6873   -0.5785    0.5795 C.ar    1  UNL1        0.0267
      9 C           2.2789   -0.1843    0.6232 C.ar    1  UNL1       -0.0101
     10 C           1.8931    0.9600    1.3024 C.ar    1  UNL1       -0.0529
     11 C           0.5495    1.3300    1.3248 C.ar    1  UNL1       -0.0514
     12 C          -0.4660    0.5839    0.6748 C.ar    1  UNL1        0.0087
     13 C          -0.0980   -0.5881   -0.0259 C.ar    1  UNL1       -0.0075
     14 C           1.2876   -0.9340   -0.0286 C.ar    1  UNL1       -0.0451
     15 C          -1.1084   -1.3558   -0.6872 C.ar    1  UNL1       -0.0095
     16 C          -0.7970   -2.5465   -1.4036 C.ar    1  UNL1       -0.0534
     17 C          -1.7541   -3.3154   -2.0583 C.ar    1  UNL1       -0.0611
     18 C          -3.0687   -2.9160   -2.0181 C.ar    1  UNL1       -0.0611
     19 C          -3.4087   -1.7542   -1.3231 C.ar    1  UNL1       -0.0534
     20 C          -2.4681   -0.9347   -0.6377 C.ar    1  UNL1       -0.0078
     21 C          -2.8236    0.2738    0.0874 C.ar    1  UNL1        0.0127
     22 C          -4.1261    0.8362    0.2387 C.ar    1  UNL1       -0.0253
     23 C          -5.4702    0.3846   -0.2737 C.3     1  UNL1       -0.0079
     24 C          -6.4007    1.4430    0.2604 C.2     1  UNL1       -0.0791
     25 C          -5.7550    2.3754    0.9704 C.2     1  UNL1       -0.0565
     26 C          -4.3525    2.0137    0.9651 C.ar    1  UNL1       -0.0031
     27 C          -3.2970    2.6445    1.5466 C.ar    1  UNL1        0.0357
     28 N          -2.0488    2.1607    1.4368 N.ar    1  UNL1       -0.2537
     29 C          -1.7999    1.0175    0.7376 C.ar    1  UNL1        0.0795
     30 H           7.8611    0.4627    0.7394 H       1  UNL1        0.0356
     31 H           7.6822   -0.1100   -0.9553 H       1  UNL1        0.0356
     32 H           6.8971    2.4704   -0.7972 H       1  UNL1        0.0575
     33 H           4.3291    2.1959   -0.4329 H       1  UNL1        0.0621
     34 H           6.5866   -2.6304    0.9551 H       1  UNL1        0.0696
     35 H           2.6221    1.5707    1.8291 H       1  UNL1        0.0624
     36 H           0.2900    2.2354    1.8746 H       1  UNL1        0.0624
     37 H           1.6289   -1.8146   -0.5652 H       1  UNL1        0.0630
     38 H           0.2224   -2.9154   -1.4701 H       1  UNL1        0.0624
     39 H          -1.4644   -4.2165   -2.5911 H       1  UNL1        0.0618
     40 H          -3.8365   -3.4978   -2.5206 H       1  UNL1        0.0618
     41 H          -4.4617   -1.5146   -1.3417 H       1  UNL1        0.0624
     42 H          -5.7522   -0.5877    0.1406 H       1  UNL1        0.0356
     43 H          -5.5059    0.3898   -1.3670 H       1  UNL1        0.0356
     44 H          -7.4669    1.4360    0.0819 H       1  UNL1        0.0575
     45 H          -6.1747    3.2382    1.4614 H       1  UNL1        0.0621
     46 H          -3.4051    3.5570    2.1207 H       1  UNL1        0.0836
@<TRIPOS>BOND
     1     1     2    1
     2     2     3    2
     3     3     4    1
     4     4     5   ar
     5     5     6   ar
     6     6     7   ar
     7     7     8   ar
     8     8     9    1
     9     9    10   ar
    10    10    11   ar
    11    11    12   ar
    12    12    13   ar
    13    13    14   ar
    14    13    15   ar
    15    15    16   ar
    16    16    17   ar
    17    17    18   ar
    18    18    19   ar
    19    19    20   ar
    20    20    21   ar
    21    21    22   ar
    22    22    23    1
    23    23    24    1
    24    24    25    2
    25    25    26    1
    26    26    27   ar
    27    27    28   ar
    28    28    29   ar
    29     5     1    1
    30    14     9   ar
    31    20    15   ar
    32    29    21   ar
    33     8     4   ar
    34    29    12   ar
    35    26    22   ar
    36     1    30    1
    37     1    31    1
    38     2    32    1
    39     3    33    1
    40     6    34    1
    41    10    35    1
    42    11    36    1
    43    14    37    1
    44    16    38    1
    45    17    39    1
    46    18    40    1
    47    19    41    1
    48    23    42    1
    49    23    43    1
    50    24    44    1
    51    25    45    1
    52    27    46    1
