@<TRIPOS>MOLECULE
*****
 43 49 0 0 0
SMALL
GASTEIGER

@<TRIPOS>ATOM
      1 C           6.9097    1.6628    0.0076 C.3     1  UNL1        0.0000
      2 C           5.7873    2.6714   -0.2520 C.2     1  UNL1        0.0000
      3 C           4.5757    2.0701   -0.2535 C.2     1  UNL1        0.0000
      4 C           4.7392    0.6809   -0.0092 C.ar    1  UNL1        0.0000
      5 C           6.1192    0.4068    0.1464 C.ar    1  UNL1        0.0000
      6 C           6.3677   -0.9171    0.3782 C.ar    1  UNL1        0.0000
      7 S           4.8893   -1.8103    0.4019 S.2     1  UNL1        0.0000
      8 C           3.9147   -0.4060    0.0953 C.ar    1  UNL1        0.0000
      9 C           2.4574   -0.5151    0.0161 C.ar    1  UNL1        0.0000
     10 C           1.8397   -1.4584   -0.7971 C.ar    1  UNL1        0.0000
     11 C           0.4439   -1.5284   -0.8598 C.ar    1  UNL1        0.0000
     12 C          -0.3921   -0.6589   -0.1153 C.ar    1  UNL1        0.0000
     13 C           0.2555    0.2941    0.7005 C.ar    1  UNL1        0.0000
     14 C           1.6421    0.3487    0.7525 C.ar    1  UNL1        0.0000
     15 N          -0.3995    1.1811    1.4526 N.ar    1  UNL1        0.0000
     16 C          -1.7503    1.1715    1.4403 C.ar    1  UNL1        0.0000
     17 C          -2.5588    0.3093    0.7036 C.ar    1  UNL1        0.0000
     18 C          -4.0058    0.3889    0.7662 C.ar    1  UNL1        0.0000
     19 SI         -5.1213    1.5792    1.7745 Si      1  UNL1        0.0000
     20 C          -6.6391    0.7365    1.0527 C.2     1  UNL1        0.0000
     21 C          -6.3400   -0.2630    0.2041 C.2     1  UNL1        0.0000
     22 C          -4.9040   -0.4509    0.0493 C.ar    1  UNL1        0.0000
     23 C          -4.2285   -1.3687   -0.7266 C.ar    1  UNL1        0.0000
     24 C          -4.7733   -2.3257   -1.5385 C.ar    1  UNL1        0.0000
     25 O          -3.7733   -3.0332   -2.1321 O.2     1  UNL1        0.0000
     26 C          -2.5855   -2.5177   -1.6903 C.ar    1  UNL1        0.0000
     27 C          -2.7977   -1.4785   -0.8150 C.ar    1  UNL1        0.0000
     28 C          -1.8479   -0.6503   -0.1104 C.ar    1  UNL1        0.0000
     29 H           7.4488    1.9086    0.9266 H       1  UNL1        0.0000
     30 H           7.5975    1.6193   -0.8414 H       1  UNL1        0.0000
     31 H           5.9589    3.7251   -0.4141 H       1  UNL1        0.0000
     32 H           3.6268    2.5611   -0.4185 H       1  UNL1        0.0000
     33 H           7.3134   -1.4164    0.5353 H       1  UNL1        0.0000
     34 H           2.4311   -2.1443   -1.4003 H       1  UNL1        0.0000
     35 H           0.0352   -2.2841   -1.5144 H       1  UNL1        0.0000
     36 H           2.0986    1.0916    1.4049 H       1  UNL1        0.0000
     37 H          -2.1694    1.9354    2.0898 H       1  UNL1        0.0000
     38 H          -4.9823    1.3566    3.2340 H       1  UNL1        0.0000
     39 H          -4.9754    2.9833    1.3197 H       1  UNL1        0.0000
     40 H          -7.6306    1.0632    1.3273 H       1  UNL1        0.0000
     41 H          -7.0699   -0.8695   -0.3136 H       1  UNL1        0.0000
     42 H          -5.7775   -2.6286   -1.7982 H       1  UNL1        0.0000
     43 H          -1.7295   -3.0205   -2.1082 H       1  UNL1        0.0000
@<TRIPOS>BOND
     1     1     2    1
     2     2     3    2
     3     3     4    1
     4     4     5   ar
     5     5     6   ar
     6     6     7   ar
     7     7     8   ar
     8     8     9    1
     9     9    10   ar
    10    10    11   ar
    11    11    12   ar
    12    12    13   ar
    13    13    14   ar
    14    13    15   ar
    15    15    16   ar
    16    16    17   ar
    17    17    18   ar
    18    18    19    1
    19    19    20    1
    20    20    21    2
    21    21    22    1
    22    22    23   ar
    23    23    24   ar
    24    24    25   ar
    25    25    26   ar
    26    26    27   ar
    27    27    28   ar
    28     5     1    1
    29    14     9   ar
    30    28    17   ar
    31     8     4   ar
    32    28    12   ar
    33    22    18   ar
    34    27    23   ar
    35     1    29    1
    36     1    30    1
    37     2    31    1
    38     3    32    1
    39     6    33    1
    40    10    34    1
    41    11    35    1
    42    14    36    1
    43    16    37    1
    44    19    38    1
    45    19    39    1
    46    20    40    1
    47    21    41    1
    48    24    42    1
    49    26    43    1
