@<TRIPOS>MOLECULE
*****
 42 48 0 0 0
SMALL
GASTEIGER

@<TRIPOS>ATOM
      1 C          -6.6397    0.4194    0.9609 C.3     1  UNL1       -0.0081
      2 C          -5.7320   -0.4742    1.8112 C.2     1  UNL1       -0.0791
      3 C          -4.4301   -0.3068    1.4846 C.2     1  UNL1       -0.0568
      4 C          -4.3257    0.6536    0.4440 C.ar    1  UNL1       -0.0070
      5 C          -5.6249    1.1084    0.1139 C.ar    1  UNL1       -0.0289
      6 C          -5.6146    2.0499   -0.8768 C.ar    1  UNL1       -0.0197
      7 S          -3.9954    2.3629   -1.3906 S.2     1  UNL1       -0.0957
      8 C          -3.3102    1.2262   -0.2717 C.ar    1  UNL1        0.0282
      9 C          -1.8679    1.0014   -0.2329 C.ar    1  UNL1        0.0080
     10 C          -0.9540    2.0431   -0.1414 C.ar    1  UNL1        0.0365
     11 N           0.3992    1.8988   -0.0859 N.ar    1  UNL1       -0.2537
     12 C           0.9478    0.6647   -0.1207 C.ar    1  UNL1        0.0794
     13 C           0.0630   -0.4553   -0.2142 C.ar    1  UNL1        0.0107
     14 C          -1.3384   -0.2823   -0.2685 C.ar    1  UNL1       -0.0422
     15 C           0.7460   -1.6893   -0.2438 C.ar    1  UNL1        0.0092
     16 C           0.2032   -2.9488   -0.3310 C.ar    1  UNL1        0.0101
     17 N           1.2509   -3.8442   -0.3290 N.ar    1  UNL1       -0.3659
     18 C           2.4495   -3.1698   -0.2402 C.ar    1  UNL1        0.0100
     19 C           2.1592   -1.8277   -0.1868 C.ar    1  UNL1        0.0078
     20 C           3.0661   -0.7514   -0.0933 C.ar    1  UNL1       -0.0061
     21 C           4.4777   -0.8683   -0.0351 C.ar    1  UNL1       -0.0451
     22 C           5.2721    0.2938    0.0572 C.ar    1  UNL1       -0.0102
     23 C           6.6979    0.4453    0.1289 C.ar    1  UNL1       -0.0470
     24 C           7.0925    1.7598    0.2104 C.ar    1  UNL1       -0.0232
     25 S           5.7625    2.8256    0.2020 S.2     1  UNL1       -0.0966
     26 C           4.6282    1.5306    0.0879 C.ar    1  UNL1        0.0200
     27 C           3.2199    1.6433    0.0295 C.ar    1  UNL1       -0.0376
     28 C           2.3897    0.5096   -0.0629 C.ar    1  UNL1        0.0098
     29 H          -7.1913    1.1238    1.5896 H       1  UNL1        0.0356
     30 H          -7.3287   -0.1830    0.3626 H       1  UNL1        0.0356
     31 H          -6.1012   -1.1412    2.5760 H       1  UNL1        0.0575
     32 H          -3.5933   -0.8125    1.9458 H       1  UNL1        0.0621
     33 H          -6.4451    2.5727   -1.3302 H       1  UNL1        0.0696
     34 H          -1.2855    3.0781   -0.0957 H       1  UNL1        0.0836
     35 H          -1.9930   -1.1444   -0.3494 H       1  UNL1        0.0631
     36 H          -0.8161   -3.3037   -0.3966 H       1  UNL1        0.0813
     37 H           1.1547   -4.8501   -0.3858 H       1  UNL1        0.1648
     38 H           3.3820   -3.7170   -0.2258 H       1  UNL1        0.0813
     39 H           4.9536   -1.8435   -0.0611 H       1  UNL1        0.0630
     40 H           7.3975   -0.3811    0.1204 H       1  UNL1        0.0629
     41 H           8.1002    2.1463    0.2746 H       1  UNL1        0.0694
     42 H           2.7737    2.6369    0.0569 H       1  UNL1        0.0636
@<TRIPOS>BOND
     1     1     2    1
     2     2     3    2
     3     3     4    1
     4     4     5   ar
     5     5     6   ar
     6     6     7   ar
     7     7     8   ar
     8     8     9    1
     9     9    10   ar
    10    10    11   ar
    11    11    12   ar
    12    12    13   ar
    13    13    14   ar
    14    13    15   ar
    15    15    16   ar
    16    16    17   ar
    17    17    18   ar
    18    18    19   ar
    19    19    20   ar
    20    20    21   ar
    21    21    22   ar
    22    22    23   ar
    23    23    24   ar
    24    24    25   ar
    25    25    26   ar
    26    26    27   ar
    27    27    28   ar
    28     5     1    1
    29    14     9   ar
    30    19    15   ar
    31    28    20   ar
    32     8     4   ar
    33    28    12   ar
    34    26    22   ar
    35     1    29    1
    36     1    30    1
    37     2    31    1
    38     3    32    1
    39     6    33    1
    40    10    34    1
    41    14    35    1
    42    16    36    1
    43    17    37    1
    44    18    38    1
    45    21    39    1
    46    23    40    1
    47    24    41    1
    48    27    42    1
