@<TRIPOS>MOLECULE
*****
 47 54 0 0 0
SMALL
GASTEIGER

@<TRIPOS>ATOM
      1 C          -5.1694    2.3806   -0.2650 C.3     1  UNL1        0.0000
      2 C          -6.4151    1.5668   -0.5219 C.2     1  UNL1        0.0000
      3 C          -6.1564    0.2568   -0.6642 C.2     1  UNL1        0.0000
      4 C          -4.7233    0.0745   -0.5153 C.ar    1  UNL1        0.0000
      5 C          -3.9585   -1.0678   -0.6244 C.ar    1  UNL1        0.0000
      6 C          -2.5592   -0.9777   -0.4581 C.ar    1  UNL1        0.0000
      7 C          -1.9359    0.2691   -0.1201 C.ar    1  UNL1        0.0000
      8 C          -2.7543    1.4185   -0.0966 C.ar    1  UNL1        0.0000
      9 C          -4.1253    1.3063   -0.2730 C.ar    1  UNL1        0.0000
     10 C          -0.4688    0.3260    0.1156 C.ar    1  UNL1        0.0000
     11 C           0.2666    1.3617    0.7309 C.ar    1  UNL1        0.0000
     12 C          -0.1826    2.4744    1.4030 C.ar    1  UNL1        0.0000
     13 O           0.8653    3.2332    1.8372 O.2     1  UNL1        0.0000
     14 C           2.0096    2.5845    1.4883 C.ar    1  UNL1        0.0000
     15 C           1.6992    1.4049    0.8594 C.ar    1  UNL1        0.0000
     16 C           2.5927    0.4302    0.4173 C.ar    1  UNL1        0.0000
     17 C           1.8712   -0.6600   -0.1294 C.ar    1  UNL1        0.0000
     18 C           0.4271   -0.7425   -0.2500 C.ar    1  UNL1        0.0000
     19 C          -0.2093   -2.0133   -0.6939 C.ar    1  UNL1        0.0000
     20 C           0.4508   -3.1416   -1.0384 C.2     1  UNL1        0.0000
     21 SI         -0.7139   -4.5467   -1.4223 Si      1  UNL1        0.0000
     22 C          -2.1212   -3.3818   -1.0591 C.2     1  UNL1        0.0000
     23 C          -1.6848   -2.1477   -0.7220 C.ar    1  UNL1        0.0000
     24 C           4.0340    0.4785    0.5575 C.ar    1  UNL1        0.0000
     25 C           4.7149    0.6430    1.7731 C.ar    1  UNL1        0.0000
     26 N           6.0714    0.6974    1.9871 N.ar    1  UNL1        0.0000
     27 C           6.9445    0.5747    0.9464 C.ar    1  UNL1        0.0000
     28 C           6.4137    0.3880   -0.3443 C.ar    1  UNL1        0.0000
     29 N           7.1123    0.2426   -1.4818 N.ar    1  UNL1        0.0000
     30 S           5.9960    0.0622   -2.6964 S.2     1  UNL1        0.0000
     31 N           4.5834    0.1518   -1.8335 N.ar    1  UNL1        0.0000
     32 C           4.9196    0.3363   -0.5431 C.ar    1  UNL1        0.0000
     33 H          -5.2213    2.8793    0.7069 H       1  UNL1        0.0000
     34 H          -5.0036    3.1054   -1.0670 H       1  UNL1        0.0000
     35 H          -7.4008    2.0057   -0.5849 H       1  UNL1        0.0000
     36 H          -6.8620   -0.5346   -0.8576 H       1  UNL1        0.0000
     37 H          -4.4470   -2.0039   -0.8665 H       1  UNL1        0.0000
     38 H          -2.3453    2.4140    0.0142 H       1  UNL1        0.0000
     39 H          -1.1482    2.8722    1.6763 H       1  UNL1        0.0000
     40 H           2.9249    3.0807    1.7799 H       1  UNL1        0.0000
     41 H           2.4669   -1.5087   -0.4649 H       1  UNL1        0.0000
     42 H           1.5117   -3.3179   -1.0841 H       1  UNL1        0.0000
     43 H          -0.6638   -4.9548   -2.8466 H       1  UNL1        0.0000
     44 H          -0.6167   -5.6485   -0.4349 H       1  UNL1        0.0000
     45 H          -3.1345   -3.7303   -1.1644 H       1  UNL1        0.0000
     46 H           4.1421    0.7354    2.6979 H       1  UNL1        0.0000
     47 H           8.0031    0.6232    1.1637 H       1  UNL1        0.0000
@<TRIPOS>BOND
     1     1     2    1
     2     2     3    2
     3     3     4    1
     4     4     5   ar
     5     5     6   ar
     6     6     7   ar
     7     7     8   ar
     8     8     9   ar
     9     7    10   ar
    10    10    11   ar
    11    11    12   ar
    12    12    13   ar
    13    13    14   ar
    14    14    15   ar
    15    15    16   ar
    16    16    17   ar
    17    17    18   ar
    18    18    19   ar
    19    19    20    2
    20    20    21    1
    21    21    22    1
    22    22    23    2
    23    16    24    1
    24    24    25   ar
    25    25    26   ar
    26    26    27   ar
    27    27    28   ar
    28    28    29   ar
    29    29    30   ar
    30    30    31   ar
    31    31    32   ar
    32     9     1    1
    33    18    10   ar
    34    23    19   ar
    35    32    24   ar
    36     9     4   ar
    37    15    11   ar
    38    32    28   ar
    39    23     6   ar
    40     1    33    1
    41     1    34    1
    42     2    35    1
    43     3    36    1
    44     5    37    1
    45     8    38    1
    46    12    39    1
    47    14    40    1
    48    17    41    1
    49    20    42    1
    50    21    43    1
    51    21    44    1
    52    22    45    1
    53    25    46    1
    54    27    47    1
