@<TRIPOS>MOLECULE
*****
 28 31 0 0 0
SMALL
GASTEIGER

@<TRIPOS>ATOM
      1 C          -3.8490   -0.9539   -1.0621 C.3     1  UNL1       -0.0086
      2 C          -4.8650   -0.1662   -0.2695 C.2     1  UNL1       -0.0791
      3 C          -4.2987    0.6752    0.6106 C.2     1  UNL1       -0.0579
      4 C          -2.8582    0.5319    0.4920 C.ar    1  UNL1       -0.0212
      5 C          -1.8461    1.1769    1.1784 C.ar    1  UNL1       -0.0452
      6 C          -0.5117    0.8510    0.8690 C.ar    1  UNL1        0.0008
      7 C           0.5705    1.4514    1.5108 C.ar    1  UNL1        0.0360
      8 N           1.8699    1.1749    1.2517 N.ar    1  UNL1       -0.2523
      9 C           2.1321    0.2457    0.2977 C.ar    1  UNL1        0.0964
     10 C           1.1221   -0.4124   -0.4023 C.ar    1  UNL1       -0.0259
     11 C          -0.2178   -0.1170   -0.1245 C.ar    1  UNL1       -0.0140
     12 C          -1.2653   -0.7586   -0.8081 C.ar    1  UNL1       -0.0499
     13 C          -2.5709   -0.4233   -0.4884 C.ar    1  UNL1       -0.0359
     14 C           3.5499   -0.0564    0.0145 C.ar    1  UNL1        0.1264
     15 N           3.9643   -0.9352   -0.8857 N.ar    1  UNL1       -0.2458
     16 C           5.3438   -0.9843   -0.9080 C.ar    1  UNL1        0.0355
     17 C           5.9829   -0.1440   -0.0260 C.ar    1  UNL1       -0.0042
     18 S           4.8241    0.7430    0.8673 S.2     1  UNL1       -0.0742
     19 H          -3.9296   -0.7327   -2.1301 H       1  UNL1        0.0356
     20 H          -3.9550   -2.0265   -0.8768 H       1  UNL1        0.0356
     21 H          -5.9312   -0.2790   -0.4076 H       1  UNL1        0.0575
     22 H          -4.7982    1.3448    1.2917 H       1  UNL1        0.0621
     23 H          -2.0830    1.9163    1.9369 H       1  UNL1        0.0630
     24 H           0.4197    2.2021    2.2829 H       1  UNL1        0.0836
     25 H           1.3833   -1.1490   -1.1576 H       1  UNL1        0.0646
     26 H          -1.0648   -1.5034   -1.5730 H       1  UNL1        0.0627
     27 H           5.8387   -1.6592   -1.5957 H       1  UNL1        0.0835
     28 H           7.0431   -0.0119    0.1325 H       1  UNL1        0.0709
@<TRIPOS>BOND
     1     1     2    1
     2     2     3    2
     3     3     4    1
     4     4     5   ar
     5     5     6   ar
     6     6     7   ar
     7     7     8   ar
     8     8     9   ar
     9     9    10   ar
    10    10    11   ar
    11    11    12   ar
    12    12    13   ar
    13     9    14    1
    14    14    15   ar
    15    15    16   ar
    16    16    17   ar
    17    17    18   ar
    18    13     1    1
    19    18    14   ar
    20    13     4   ar
    21    11     6   ar
    22     1    19    1
    23     1    20    1
    24     2    21    1
    25     3    22    1
    26     5    23    1
    27     7    24    1
    28    10    25    1
    29    12    26    1
    30    16    27    1
    31    17    28    1
