@<TRIPOS>MOLECULE
*****
 37 42 0 0 0
SMALL
GASTEIGER

@<TRIPOS>ATOM
      1 C           5.2663   -0.5492   -1.0160 C.3     1  UNL1       -0.0086
      2 C           6.2456   -0.3444    0.1137 C.2     1  UNL1       -0.0791
      3 C           5.6440   -0.0285    1.2716 C.2     1  UNL1       -0.0578
      4 C           4.2103    0.0088    1.0316 C.ar    1  UNL1       -0.0183
      5 C           3.1881    0.2894    1.9247 C.ar    1  UNL1       -0.0113
      6 C           1.9026    0.2442    1.3788 C.ar    1  UNL1        0.1368
      7 O           0.7543    0.4894    2.0883 O.2     1  UNL1       -0.4547
      8 C          -0.2939    0.3530    1.2203 C.ar    1  UNL1        0.1375
      9 C          -1.6606    0.5181    1.5296 C.ar    1  UNL1       -0.0099
     10 C          -2.6333    0.3372    0.5151 C.ar    1  UNL1        0.0013
     11 C          -4.0648    0.4620    0.7434 C.ar    1  UNL1        0.0201
     12 C          -5.0635   -0.4729    0.5441 C.ar    1  UNL1       -0.0469
     13 C          -6.3551    0.0241    0.8847 C.ar    1  UNL1       -0.0541
     14 C          -6.3023    1.3234    1.3356 C.ar    1  UNL1       -0.0237
     15 S          -4.7053    1.9338    1.3487 S.2     1  UNL1       -0.0966
     16 C          -2.0832    0.0018   -0.7341 C.ar    1  UNL1        0.0084
     17 C          -2.7532   -0.2101   -1.9208 C.ar    1  UNL1        0.0100
     18 N          -1.8179   -0.5037   -2.9001 N.ar    1  UNL1       -0.3659
     19 C          -0.5432   -0.4777   -2.3707 C.ar    1  UNL1        0.0101
     20 C          -0.7203   -0.1633   -1.0579 C.ar    1  UNL1        0.0113
     21 C           0.2236    0.0221   -0.0148 C.ar    1  UNL1        0.0371
     22 C           1.6172   -0.0571    0.0369 C.ar    1  UNL1        0.0288
     23 C           2.6781   -0.3380   -0.8465 C.ar    1  UNL1       -0.0463
     24 C           3.9643   -0.2962   -0.3151 C.ar    1  UNL1       -0.0357
     25 H           5.4353    0.1767   -1.8165 H       1  UNL1        0.0356
     26 H           5.3200   -1.5719   -1.3996 H       1  UNL1        0.0356
     27 H           7.3146   -0.4445   -0.0111 H       1  UNL1        0.0575
     28 H           6.1131    0.1674    2.2223 H       1  UNL1        0.0621
     29 H           3.3566    0.5269    2.9659 H       1  UNL1        0.0660
     30 H          -1.9525    0.7726    2.5437 H       1  UNL1        0.0661
     31 H          -4.8729   -1.4732    0.1738 H       1  UNL1        0.0629
     32 H          -7.2739   -0.5436    0.8052 H       1  UNL1        0.0623
     33 H          -7.1238    1.9464    1.6614 H       1  UNL1        0.0693
     34 H          -3.8038   -0.1740   -2.1763 H       1  UNL1        0.0813
     35 H          -2.0399   -0.6984   -3.8680 H       1  UNL1        0.1648
     36 H           0.3229   -0.6753   -2.9851 H       1  UNL1        0.0813
     37 H           2.5066   -0.5754   -1.8892 H       1  UNL1        0.0628
@<TRIPOS>BOND
     1     1     2    1
     2     2     3    2
     3     3     4    1
     4     4     5   ar
     5     5     6   ar
     6     6     7   ar
     7     7     8   ar
     8     8     9   ar
     9     9    10   ar
    10    10    11    1
    11    11    12   ar
    12    12    13   ar
    13    13    14   ar
    14    14    15   ar
    15    10    16   ar
    16    16    17   ar
    17    17    18   ar
    18    18    19   ar
    19    19    20   ar
    20    20    21   ar
    21    21    22   ar
    22    22    23   ar
    23    23    24   ar
    24    24     1    1
    25    24     4   ar
    26    22     6   ar
    27    21     8   ar
    28    15    11   ar
    29    20    16   ar
    30     1    25    1
    31     1    26    1
    32     2    27    1
    33     3    28    1
    34     5    29    1
    35     9    30    1
    36    12    31    1
    37    13    32    1
    38    14    33    1
    39    17    34    1
    40    18    35    1
    41    19    36    1
    42    23    37    1
