@<TRIPOS>MOLECULE
*****
 31 35 0 0 0
SMALL
GASTEIGER

@<TRIPOS>ATOM
      1 C           5.0530    0.9283   -0.2402 C.3     1  UNL1       -0.0086
      2 C           5.7338   -0.1123    0.6156 C.2     1  UNL1       -0.0791
      3 C           4.8744   -1.0180    1.1096 C.2     1  UNL1       -0.0579
      4 C           3.5457   -0.6707    0.6335 C.ar    1  UNL1       -0.0208
      5 C           2.3377   -1.3030    0.8733 C.ar    1  UNL1       -0.0400
      6 C           1.1892   -0.7395    0.2751 C.ar    1  UNL1        0.0205
      7 S          -0.4249   -1.3243    0.4079 S.2     1  UNL1       -0.0876
      8 C          -1.0603   -0.0784   -0.5738 C.ar    1  UNL1        0.0292
      9 C          -0.0582    0.7661   -1.0082 C.ar    1  UNL1       -0.0386
     10 C           1.2476    0.4075   -0.5281 C.ar    1  UNL1       -0.0099
     11 C           2.5032    1.0284   -0.7519 C.ar    1  UNL1       -0.0495
     12 C           3.6284    0.4702   -0.1616 C.ar    1  UNL1       -0.0359
     13 C          -2.4673   -0.0010   -0.8890 C.ar    1  UNL1        0.0534
     14 S          -2.9793    0.3389   -2.5071 S.2     1  UNL1       -0.0918
     15 C          -4.6409    0.2436   -2.1036 C.ar    1  UNL1        0.0038
     16 C          -4.8143   -0.0267   -0.7721 C.ar    1  UNL1        0.0968
     17 N          -6.0453   -0.1399   -0.2000 N.ar    1  UNL1       -0.2514
     18 C          -5.9342   -0.3993    1.1314 C.ar    1  UNL1        0.0464
     19 C          -4.7280   -0.5299    1.8288 C.ar    1  UNL1        0.0464
     20 N          -3.4890   -0.4190    1.2791 N.ar    1  UNL1       -0.2508
     21 C          -3.5626   -0.1666   -0.0620 C.ar    1  UNL1        0.1044
     22 H           5.4269    0.8954   -1.2674 H       1  UNL1        0.0356
     23 H           5.1753    1.9274    0.1875 H       1  UNL1        0.0356
     24 H           6.7985   -0.1151    0.8016 H       1  UNL1        0.0575
     25 H           5.1000   -1.8588    1.7452 H       1  UNL1        0.0621
     26 H           2.2700   -2.1908    1.4917 H       1  UNL1        0.0635
     27 H          -0.2398    1.6240   -1.6444 H       1  UNL1        0.0635
     28 H           2.5803    1.9178   -1.3692 H       1  UNL1        0.0627
     29 H          -5.4046    0.3939   -2.8527 H       1  UNL1        0.0715
     30 H          -6.8801   -0.5045    1.6555 H       1  UNL1        0.0845
     31 H          -4.7350   -0.7363    2.8955 H       1  UNL1        0.0845
@<TRIPOS>BOND
     1     1     2    1
     2     2     3    2
     3     3     4    1
     4     4     5   ar
     5     5     6   ar
     6     6     7   ar
     7     7     8   ar
     8     8     9   ar
     9     9    10   ar
    10    10    11   ar
    11    11    12   ar
    12     8    13    1
    13    13    14   ar
    14    14    15   ar
    15    15    16   ar
    16    16    17   ar
    17    17    18   ar
    18    18    19   ar
    19    19    20   ar
    20    20    21   ar
    21    12     1    1
    22    21    13   ar
    23    12     4   ar
    24    21    16   ar
    25    10     6   ar
    26     1    22    1
    27     1    23    1
    28     2    24    1
    29     3    25    1
    30     5    26    1
    31     9    27    1
    32    11    28    1
    33    15    29    1
    34    18    30    1
    35    19    31    1
