@<TRIPOS>MOLECULE
*****
 43 49 0 0 0
SMALL
GASTEIGER

@<TRIPOS>ATOM
      1 C          -4.9002    0.5621   -0.7886 C.3     1  UNL1       -0.0080
      2 C          -6.0342   -0.4307   -0.7120 C.2     1  UNL1       -0.0791
      3 C          -5.6165   -1.6598   -0.3772 C.2     1  UNL1       -0.0579
      4 C          -4.1781   -1.5937   -0.1961 C.ar    1  UNL1       -0.0212
      5 C          -3.2977   -2.6026    0.1117 C.ar    1  UNL1       -0.0537
      6 C          -1.9349   -2.2879    0.2330 C.ar    1  UNL1       -0.0528
      7 C          -1.3933   -0.9775    0.0918 C.ar    1  UNL1       -0.0086
      8 C          -2.3500    0.0239   -0.3118 C.ar    1  UNL1       -0.0041
      9 C          -3.7237   -0.2937   -0.4233 C.ar    1  UNL1       -0.0282
     10 C          -1.7260    1.2674   -0.5888 C.ar    1  UNL1        0.0080
     11 C          -2.3302    2.4297   -1.0118 C.ar    1  UNL1        0.0100
     12 N          -1.3468    3.3749   -1.1902 N.ar    1  UNL1       -0.3659
     13 C          -0.1202    2.8347   -0.8902 C.ar    1  UNL1        0.0100
     14 C          -0.3235    1.5264   -0.5107 C.ar    1  UNL1        0.0077
     15 C           0.6678    0.6114   -0.0986 C.ar    1  UNL1       -0.0069
     16 C           2.0763    0.9484   -0.0730 C.ar    1  UNL1       -0.0421
     17 C           3.1068    0.0911    0.3719 C.ar    1  UNL1        0.0280
     18 C           4.5206    0.4655    0.3377 C.ar    1  UNL1        0.1636
     19 N           5.4306   -0.4876    0.1160 N.ar    1  UNL1       -0.2160
     20 C           6.6883   -0.0570    0.0560 C.ar    1  UNL1        0.1200
     21 N           7.0933    1.2018    0.1937 N.ar    1  UNL1       -0.2241
     22 C           6.1021    2.0632    0.4006 C.ar    1  UNL1        0.1200
     23 N           4.8073    1.7659    0.4744 N.ar    1  UNL1       -0.2160
     24 C           2.5564   -1.0993    0.8809 C.ar    1  UNL1        0.0004
     25 C           3.3144   -2.0607    1.5157 C.ar    1  UNL1       -0.0159
     26 S           2.3637   -3.3266    2.1550 S.2     1  UNL1       -0.1038
     27 C           0.9178   -2.5869    1.6135 C.ar    1  UNL1       -0.0160
     28 C           1.1304   -1.4504    0.8618 C.ar    1  UNL1       -0.0019
     29 C           0.0675   -0.6576    0.2852 C.ar    1  UNL1       -0.0013
     30 H          -5.0513    1.3680   -0.0649 H       1  UNL1        0.0356
     31 H          -4.8149    0.9519   -1.8069 H       1  UNL1        0.0356
     32 H          -7.0626   -0.1663   -0.9123 H       1  UNL1        0.0575
     33 H          -6.2148   -2.5482   -0.2582 H       1  UNL1        0.0621
     34 H          -3.6379   -3.6251    0.2392 H       1  UNL1        0.0624
     35 H          -1.2775   -3.1371    0.3849 H       1  UNL1        0.0624
     36 H          -3.3561    2.6971   -1.2121 H       1  UNL1        0.0813
     37 H          -1.5040    4.3262   -1.4975 H       1  UNL1        0.1648
     38 H           0.7689    3.4443   -0.9712 H       1  UNL1        0.0813
     39 H           2.3748    1.9327   -0.4358 H       1  UNL1        0.0631
     40 H           7.4548   -0.8037   -0.1221 H       1  UNL1        0.1048
     41 H           6.3738    3.1068    0.5180 H       1  UNL1        0.1048
     42 H           4.3816   -2.0932    1.6823 H       1  UNL1        0.0700
     43 H          -0.0029   -3.0478    1.9298 H       1  UNL1        0.0700
@<TRIPOS>BOND
     1     1     2    1
     2     2     3    2
     3     3     4    1
     4     4     5   ar
     5     5     6   ar
     6     6     7   ar
     7     7     8   ar
     8     8     9   ar
     9     8    10   ar
    10    10    11   ar
    11    11    12   ar
    12    12    13   ar
    13    13    14   ar
    14    14    15   ar
    15    15    16   ar
    16    16    17   ar
    17    17    18    1
    18    18    19   ar
    19    19    20   ar
    20    20    21   ar
    21    21    22   ar
    22    22    23   ar
    23    17    24   ar
    24    24    25   ar
    25    25    26   ar
    26    26    27   ar
    27    27    28   ar
    28    28    29   ar
    29     9     1    1
    30    14    10   ar
    31    29    15   ar
    32     9     4   ar
    33    23    18   ar
    34    28    24   ar
    35    29     7   ar
    36     1    30    1
    37     1    31    1
    38     2    32    1
    39     3    33    1
    40     5    34    1
    41     6    35    1
    42    11    36    1
    43    12    37    1
    44    13    38    1
    45    16    39    1
    46    20    40    1
    47    22    41    1
    48    25    42    1
    49    27    43    1
