@<TRIPOS>MOLECULE
*****
 33 37 0 0 0
SMALL
GASTEIGER

@<TRIPOS>ATOM
      1 C          -4.2048   -1.1301   -0.2817 C.3     1  UNL1       -0.0083
      2 C          -5.3962   -0.2268   -0.0651 C.2     1  UNL1       -0.0791
      3 C          -5.0462    1.0346    0.2361 C.2     1  UNL1       -0.0579
      4 C          -3.5935    1.1006    0.2509 C.ar    1  UNL1       -0.0215
      5 C          -2.7634    2.1928    0.5114 C.ar    1  UNL1       -0.0537
      6 C          -1.3740    2.0206    0.4694 C.ar    1  UNL1       -0.0518
      7 C          -0.8852    0.7591    0.1677 C.ar    1  UNL1        0.0024
      8 C          -1.7219   -0.3599   -0.0992 C.ar    1  UNL1       -0.0299
      9 C          -0.9463   -1.6464   -0.4071 C.3     1  UNL1        0.0005
     10 C           0.4317   -1.0763   -0.2717 C.ar    1  UNL1       -0.0171
     11 C           1.7708   -1.4853   -0.3703 C.ar    1  UNL1       -0.0293
     12 C           2.5635   -0.3648   -0.1031 C.ar    1  UNL1        0.0848
     13 N           1.7079    0.7016    0.1523 N.ar    1  UNL1       -0.3515
     14 C           0.4401    0.2557    0.0465 C.ar    1  UNL1        0.0508
     15 C           4.0086   -0.2057   -0.0660 C.ar    1  UNL1        0.1791
     16 N           4.7432   -1.2864   -0.3250 N.ar    1  UNL1       -0.2145
     17 C           6.0522   -1.0653   -0.2730 C.ar    1  UNL1        0.1201
     18 N           6.6421    0.0967    0.0045 N.ar    1  UNL1       -0.2241
     19 C           5.7918    1.0936    0.2435 C.ar    1  UNL1        0.1201
     20 N           4.4640    1.0153    0.2256 N.ar    1  UNL1       -0.2145
     21 C          -3.0824   -0.1726   -0.0536 C.ar    1  UNL1       -0.0324
     22 H          -4.1934   -1.9428    0.4499 H       1  UNL1        0.0356
     23 H          -4.1945   -1.5243   -1.3017 H       1  UNL1        0.0356
     24 H          -6.4166   -0.5736   -0.1474 H       1  UNL1        0.0575
     25 H          -5.7009    1.8671    0.4354 H       1  UNL1        0.0621
     26 H          -3.1871    3.1647    0.7439 H       1  UNL1        0.0624
     27 H          -0.7070    2.8513    0.6675 H       1  UNL1        0.0624
     28 H          -1.1456   -2.4162    0.3423 H       1  UNL1        0.0362
     29 H          -1.1467   -1.9943   -1.4233 H       1  UNL1        0.0362
     30 H           2.1468   -2.4726   -0.6065 H       1  UNL1        0.0643
     31 H           2.0168    1.6387    0.3760 H       1  UNL1        0.1660
     32 H           6.7018   -1.9101   -0.4755 H       1  UNL1        0.1048
     33 H           6.2246    2.0611    0.4745 H       1  UNL1        0.1048
@<TRIPOS>BOND
     1     1     2    1
     2     2     3    2
     3     3     4    1
     4     4     5   ar
     5     5     6   ar
     6     6     7   ar
     7     7     8   ar
     8     8     9    1
     9     9    10    1
    10    10    11   ar
    11    11    12   ar
    12    12    13   ar
    13    13    14   ar
    14    12    15    1
    15    15    16   ar
    16    16    17   ar
    17    17    18   ar
    18    18    19   ar
    19    19    20   ar
    20     8    21   ar
    21    21     1    1
    22    21     4   ar
    23     7    14    1
    24    20    15   ar
    25    14    10   ar
    26     1    22    1
    27     1    23    1
    28     2    24    1
    29     3    25    1
    30     5    26    1
    31     6    27    1
    32     9    28    1
    33     9    29    1
    34    11    30    1
    35    13    31    1
    36    17    32    1
    37    19    33    1
