@<TRIPOS>MOLECULE
*****
 49 56 0 0 0
SMALL
GASTEIGER

@<TRIPOS>ATOM
      1 SI         -4.6320    3.3742    0.2283 Si      1  UNL1        0.0000
      2 C          -2.9365    2.6464   -0.0058 C.2     1  UNL1        0.0000
      3 C          -2.9448    1.3019    0.0837 C.ar    1  UNL1        0.0000
      4 C          -1.8385    0.4042   -0.0761 C.ar    1  UNL1        0.0000
      5 C          -2.1173   -0.9380   -0.3310 C.ar    1  UNL1        0.0000
      6 N          -0.9338   -1.5603   -0.6517 N.ar    1  UNL1        0.0000
      7 C           0.1295   -0.6980   -0.4853 C.ar    1  UNL1        0.0000
      8 C           1.5133   -0.9148   -0.6806 C.ar    1  UNL1        0.0000
      9 C           2.4559    0.0932   -0.3823 C.ar    1  UNL1        0.0000
     10 C           3.8766   -0.0958   -0.5721 C.ar    1  UNL1        0.0000
     11 C           4.5607    0.0625   -1.8063 C.ar    1  UNL1        0.0000
     12 C           5.9785   -0.1375   -1.9833 C.ar    1  UNL1        0.0000
     13 C           6.8654   -0.5213   -0.9500 C.ar    1  UNL1        0.0000
     14 C           6.1727   -0.6750    0.2427 C.ar    1  UNL1        0.0000
     15 C           6.6888   -1.0409    1.4565 C.ar    1  UNL1        0.0000
     16 O           5.6833   -1.0839    2.3849 O.2     1  UNL1        0.0000
     17 C           4.5192   -0.7403    1.7506 C.ar    1  UNL1        0.0000
     18 C           4.7732   -0.4786    0.4285 C.ar    1  UNL1        0.0000
     19 C           1.8752    1.2549    0.1560 C.ar    1  UNL1        0.0000
     20 C           2.6181    2.3390    0.5811 C.ar    1  UNL1        0.0000
     21 S           1.6421    3.5636    1.2992 S.2     1  UNL1        0.0000
     22 C           0.2004    2.6603    1.0445 C.ar    1  UNL1        0.0000
     23 C           0.4892    1.5097    0.3713 C.ar    1  UNL1        0.0000
     24 C          -0.4366    0.4887   -0.0361 C.ar    1  UNL1        0.0000
     25 C          -3.4421   -1.5729   -0.2641 C.ar    1  UNL1        0.0000
     26 C          -3.6248   -2.9505   -0.4483 C.ar    1  UNL1        0.0000
     27 C          -4.8942   -3.5163   -0.3204 C.ar    1  UNL1        0.0000
     28 C          -5.9870   -2.7151   -0.0016 C.ar    1  UNL1        0.0000
     29 C          -5.8199   -1.3409    0.1837 C.ar    1  UNL1        0.0000
     30 C          -4.5546   -0.7495    0.0508 C.ar    1  UNL1        0.0000
     31 C          -4.3216    0.7178    0.1931 C.ar    1  UNL1        0.0000
     32 C          -5.3050    1.6381    0.3066 C.2     1  UNL1        0.0000
     33 H          -4.7699    4.0938    1.5173 H       1  UNL1        0.0000
     34 H          -5.1088    4.1116   -0.9662 H       1  UNL1        0.0000
     35 H          -2.1019    3.2880   -0.2264 H       1  UNL1        0.0000
     36 H          -0.8394   -2.5257   -0.9286 H       1  UNL1        0.0000
     37 H           1.8607   -1.8759   -1.0553 H       1  UNL1        0.0000
     38 H           3.9823    0.3598   -2.6831 H       1  UNL1        0.0000
     39 H           6.3894    0.0190   -2.9819 H       1  UNL1        0.0000
     40 H           7.9260   -0.6686   -1.0942 H       1  UNL1        0.0000
     41 H           7.6729   -1.2928    1.8250 H       1  UNL1        0.0000
     42 H           3.6350   -0.7317    2.3728 H       1  UNL1        0.0000
     43 H           3.6892    2.4847    0.5447 H       1  UNL1        0.0000
     44 H          -0.7327    3.0315    1.4346 H       1  UNL1        0.0000
     45 H          -2.7914   -3.6053   -0.6798 H       1  UNL1        0.0000
     46 H          -5.0291   -4.5858   -0.4615 H       1  UNL1        0.0000
     47 H          -6.9740   -3.1589    0.1035 H       1  UNL1        0.0000
     48 H          -6.6932   -0.7458    0.4316 H       1  UNL1        0.0000
     49 H          -6.3686    1.4770    0.3557 H       1  UNL1        0.0000
@<TRIPOS>BOND
     1     1     2    1
     2     2     3    2
     3     3     4   ar
     4     4     5   ar
     5     5     6   ar
     6     6     7   ar
     7     7     8   ar
     8     8     9   ar
     9     9    10    1
    10    10    11   ar
    11    11    12   ar
    12    12    13   ar
    13    13    14   ar
    14    14    15   ar
    15    15    16   ar
    16    16    17   ar
    17    17    18   ar
    18     9    19   ar
    19    19    20   ar
    20    20    21   ar
    21    21    22   ar
    22    22    23   ar
    23    23    24   ar
    24     5    25   ar
    25    25    26   ar
    26    26    27   ar
    27    27    28   ar
    28    28    29   ar
    29    29    30   ar
    30    30    31   ar
    31    31    32    2
    32    32     1    1
    33    31     3   ar
    34    24     4   ar
    35    30    25   ar
    36    24     7   ar
    37    18    10   ar
    38    23    19   ar
    39    18    14   ar
    40     1    33    1
    41     1    34    1
    42     2    35    1
    43     6    36    1
    44     8    37    1
    45    11    38    1
    46    12    39    1
    47    13    40    1
    48    15    41    1
    49    17    42    1
    50    20    43    1
    51    22    44    1
    52    26    45    1
    53    27    46    1
    54    28    47    1
    55    29    48    1
    56    32    49    1
