@<TRIPOS>MOLECULE
*****
 41 47 0 0 0
SMALL
GASTEIGER

@<TRIPOS>ATOM
      1 C          -5.3160    1.5119    0.6958 C.3     1  UNL1       -0.0080
      2 C          -6.5961    0.7350    0.5137 C.2     1  UNL1       -0.0791
      3 C          -6.3832   -0.5064    0.0522 C.2     1  UNL1       -0.0579
      4 C          -4.9506   -0.6711   -0.1150 C.ar    1  UNL1       -0.0212
      5 C          -4.2456   -1.7629   -0.5605 C.ar    1  UNL1       -0.0537
      6 C          -2.8503   -1.6623   -0.6297 C.ar    1  UNL1       -0.0528
      7 C          -2.1271   -0.4855   -0.2614 C.ar    1  UNL1       -0.0078
      8 C          -2.8955    0.6204    0.1934 C.ar    1  UNL1       -0.0132
      9 C          -2.2586    1.8081    0.5711 C.ar    1  UNL1       -0.0531
     10 C          -0.8730    1.9359    0.5119 C.ar    1  UNL1       -0.0533
     11 C          -0.0626    0.8889    0.0755 C.ar    1  UNL1       -0.0145
     12 C           1.3382    1.1148    0.0498 C.ar    1  UNL1       -0.0435
     13 C           2.2998    0.1710   -0.3593 C.ar    1  UNL1        0.0194
     14 C           3.7247    0.4636   -0.3798 C.ar    1  UNL1        0.0453
     15 S           4.3558    1.9460   -1.0424 S.2     1  UNL1       -0.0939
     16 C           6.0021    1.5567   -0.6502 C.ar    1  UNL1       -0.0145
     17 C           6.0010    0.3484   -0.0541 C.ar    1  UNL1        0.0073
     18 C           6.8889   -0.5915    0.5216 C.ar    1  UNL1       -0.0361
     19 C           6.1080   -1.6835    0.9548 C.ar    1  UNL1        0.0028
     20 N           4.7557   -1.4881    0.6818 N.ar    1  UNL1       -0.3598
     21 C           4.7712   -0.2574    0.0870 C.ar    1  UNL1        0.0615
     22 C           1.7769   -1.0833   -0.7631 C.ar    1  UNL1        0.1087
     23 N           2.4872   -2.1468   -1.1835 N.ar    1  UNL1       -0.1901
     24 S           1.4138   -3.3392   -1.5631 S.2     1  UNL1        0.1165
     25 N          -0.0036   -2.5963   -1.1713 N.ar    1  UNL1       -0.1901
     26 C           0.2772   -1.3493   -0.7487 C.ar    1  UNL1        0.1087
     27 C          -0.6811   -0.3421   -0.3184 C.ar    1  UNL1        0.0180
     28 C          -4.2897    0.5038    0.2569 C.ar    1  UNL1       -0.0288
     29 H          -5.3070    2.3968    0.0528 H       1  UNL1        0.0356
     30 H          -5.1793    1.7900    1.7449 H       1  UNL1        0.0356
     31 H          -7.5707    1.1465    0.7347 H       1  UNL1        0.0575
     32 H          -7.1202   -1.2626   -0.1638 H       1  UNL1        0.0621
     33 H          -4.7466   -2.6795   -0.8525 H       1  UNL1        0.0624
     34 H          -2.3273   -2.5444   -0.9874 H       1  UNL1        0.0624
     35 H          -2.8365    2.6615    0.9201 H       1  UNL1        0.0624
     36 H          -0.4378    2.8867    0.8184 H       1  UNL1        0.0624
     37 H           1.7060    2.0907    0.3782 H       1  UNL1        0.0631
     38 H           6.8163    2.2275   -0.8823 H       1  UNL1        0.0700
     39 H           7.9637   -0.5146    0.6178 H       1  UNL1        0.0639
     40 H           6.4160   -2.6044    1.4331 H       1  UNL1        0.0807
     41 H           3.9558   -2.0945    0.8212 H       1  UNL1        0.1654
@<TRIPOS>BOND
     1     1     2    1
     2     2     3    2
     3     3     4    1
     4     4     5   ar
     5     5     6   ar
     6     6     7   ar
     7     7     8   ar
     8     8     9   ar
     9     9    10   ar
    10    10    11   ar
    11    11    12   ar
    12    12    13   ar
    13    13    14    1
    14    14    15   ar
    15    15    16   ar
    16    16    17   ar
    17    17    18   ar
    18    18    19   ar
    19    19    20   ar
    20    20    21   ar
    21    13    22   ar
    22    22    23   ar
    23    23    24   ar
    24    24    25   ar
    25    25    26   ar
    26    26    27   ar
    27     8    28   ar
    28    28     1    1
    29    28     4   ar
    30    27     7   ar
    31    27    11   ar
    32    21    14   ar
    33    26    22   ar
    34    21    17   ar
    35     1    29    1
    36     1    30    1
    37     2    31    1
    38     3    32    1
    39     5    33    1
    40     6    34    1
    41     9    35    1
    42    10    36    1
    43    12    37    1
    44    16    38    1
    45    18    39    1
    46    19    40    1
    47    20    41    1
