@<TRIPOS>MOLECULE
*****
 39 44 0 0 0
SMALL
GASTEIGER

@<TRIPOS>ATOM
      1 C          -5.3955    0.2270   -1.3866 C.3     1  UNL1       -0.0080
      2 C          -6.6018   -0.1913   -0.5828 C.2     1  UNL1       -0.0791
      3 C          -6.2813   -0.6028    0.6535 C.2     1  UNL1       -0.0579
      4 C          -4.8397   -0.4984    0.7899 C.ar    1  UNL1       -0.0212
      5 C          -4.0382   -0.8016    1.8675 C.ar    1  UNL1       -0.0537
      6 C          -2.6565   -0.6080    1.7391 C.ar    1  UNL1       -0.0528
      7 C          -2.0517   -0.1123    0.5431 C.ar    1  UNL1       -0.0070
      8 C          -2.9096    0.1867   -0.5398 C.ar    1  UNL1        0.0049
      9 C          -2.3348    0.6700   -1.7113 C.ar    1  UNL1        0.0363
     10 N          -1.0140    0.8757   -1.8905 N.ar    1  UNL1       -0.2543
     11 C          -0.1904    0.5975   -0.8728 C.ar    1  UNL1        0.0722
     12 C           1.1665    0.8163   -1.0765 C.ar    1  UNL1       -0.0274
     13 C           2.1293    0.5667   -0.0888 C.ar    1  UNL1       -0.0071
     14 C           1.6923    0.0702    1.1378 C.ar    1  UNL1       -0.0528
     15 C           0.3327   -0.1580    1.3659 C.ar    1  UNL1       -0.0514
     16 C          -0.6417    0.0999    0.3718 C.ar    1  UNL1        0.0081
     17 C           3.5608    0.8055   -0.3277 C.ar    1  UNL1        0.0468
     18 S           4.0724    2.2841   -1.0685 S.2     1  UNL1       -0.0923
     19 C           5.7309    1.8616   -0.9943 C.ar    1  UNL1        0.0038
     20 C           5.9058    0.6343   -0.4123 C.ar    1  UNL1        0.0968
     21 N           7.1330    0.0714   -0.2319 N.ar    1  UNL1       -0.2514
     22 C           7.0191   -1.1466    0.3644 C.ar    1  UNL1        0.0464
     23 C           5.8139   -1.7468    0.7483 C.ar    1  UNL1        0.0464
     24 N           4.5775   -1.2022    0.5830 N.ar    1  UNL1       -0.2508
     25 C           4.6574    0.0222   -0.0195 C.ar    1  UNL1        0.1039
     26 C          -4.2888   -0.0110   -0.3992 C.ar    1  UNL1       -0.0273
     27 H          -5.2829   -0.4040   -2.2729 H       1  UNL1        0.0356
     28 H          -5.4627    1.2826   -1.6649 H       1  UNL1        0.0356
     29 H          -7.6091   -0.1577   -0.9738 H       1  UNL1        0.0575
     30 H          -6.9503   -0.9517    1.4233 H       1  UNL1        0.0621
     31 H          -4.4588   -1.1802    2.7932 H       1  UNL1        0.0624
     32 H          -2.0455   -0.8547    2.6037 H       1  UNL1        0.0624
     33 H          -2.9395    0.9181   -2.5795 H       1  UNL1        0.0836
     34 H           1.4729    1.1867   -2.0533 H       1  UNL1        0.0645
     35 H           2.4040   -0.1464    1.9323 H       1  UNL1        0.0624
     36 H           0.0515   -0.5458    2.3406 H       1  UNL1        0.0624
     37 H           6.4911    2.5281   -1.3746 H       1  UNL1        0.0715
     38 H           7.9617   -1.6588    0.5372 H       1  UNL1        0.0845
     39 H           5.8201   -2.7262    1.2188 H       1  UNL1        0.0845
@<TRIPOS>BOND
     1     1     2    1
     2     2     3    2
     3     3     4    1
     4     4     5   ar
     5     5     6   ar
     6     6     7   ar
     7     7     8   ar
     8     8     9   ar
     9     9    10   ar
    10    10    11   ar
    11    11    12   ar
    12    12    13   ar
    13    13    14   ar
    14    14    15   ar
    15    15    16   ar
    16    13    17    1
    17    17    18   ar
    18    18    19   ar
    19    19    20   ar
    20    20    21   ar
    21    21    22   ar
    22    22    23   ar
    23    23    24   ar
    24    24    25   ar
    25     8    26   ar
    26    26     1    1
    27    26     4   ar
    28    16     7   ar
    29    25    17   ar
    30    16    11   ar
    31    25    20   ar
    32     1    27    1
    33     1    28    1
    34     2    29    1
    35     3    30    1
    36     5    31    1
    37     6    32    1
    38     9    33    1
    39    12    34    1
    40    14    35    1
    41    15    36    1
    42    19    37    1
    43    22    38    1
    44    23    39    1
