@<TRIPOS>MOLECULE
*****
 38 43 0 0 0
SMALL
GASTEIGER

@<TRIPOS>ATOM
      1 C           4.3684    1.3755    1.6812 C.3     1  UNL1       -0.0051
      2 C           5.8225    1.1061    1.3696 C.2     1  UNL1       -0.0790
      3 C           5.9876    0.2648    0.3351 C.2     1  UNL1       -0.0578
      4 C           4.6686   -0.1128   -0.1485 C.ar    1  UNL1       -0.0183
      5 C           4.3239   -0.9546   -1.1918 C.ar    1  UNL1       -0.0535
      6 C           2.9643   -1.1728   -1.4802 C.ar    1  UNL1       -0.0498
      7 C           1.9659   -0.5339   -0.7055 C.ar    1  UNL1        0.0288
      8 C           2.3712    0.3088    0.3395 C.ar    1  UNL1        0.1403
      9 O           1.3029    0.8522    0.9944 O.2     1  UNL1       -0.4545
     10 C           0.1777    0.3719    0.3848 C.ar    1  UNL1        0.1375
     11 C          -1.1464    0.6761    0.7429 C.ar    1  UNL1       -0.0089
     12 C          -2.2283    0.0924    0.0345 C.ar    1  UNL1        0.0121
     13 C          -3.6169    0.3607    0.3982 C.ar    1  UNL1        0.0717
     14 C          -4.5067   -0.6506    0.7588 C.ar    1  UNL1       -0.0357
     15 C          -5.8098   -0.3114    1.1151 C.ar    1  UNL1       -0.0583
     16 C          -6.1890    1.0244    1.1113 C.ar    1  UNL1       -0.0436
     17 C          -5.2429    1.9697    0.7559 C.ar    1  UNL1        0.0283
     18 N          -3.9724    1.6691    0.4079 N.ar    1  UNL1       -0.2550
     19 C          -1.8166   -0.7467   -1.0264 C.ar    1  UNL1       -0.0009
     20 C          -2.6854   -1.3666   -1.9029 C.ar    1  UNL1       -0.0160
     21 S          -1.8691   -2.3261   -3.0838 S.2     1  UNL1       -0.1038
     22 C          -0.3191   -1.8983   -2.4706 C.ar    1  UNL1       -0.0159
     23 C          -0.4779   -1.0619   -1.4056 C.ar    1  UNL1        0.0011
     24 C           0.5675   -0.4649   -0.6400 C.ar    1  UNL1        0.0362
     25 C           3.7040    0.5338    0.6355 C.ar    1  UNL1        0.0063
     26 H           4.1113    1.0366    2.6885 H       1  UNL1        0.0357
     27 H           4.1270    2.4343    1.5535 H       1  UNL1        0.0357
     28 H           6.6323    1.5522    1.9297 H       1  UNL1        0.0575
     29 H           6.9183   -0.0839   -0.0824 H       1  UNL1        0.0621
     30 H           5.0903   -1.4439   -1.7857 H       1  UNL1        0.0624
     31 H           2.6992   -1.8331   -2.2990 H       1  UNL1        0.0625
     32 H          -1.3382    1.3566    1.5687 H       1  UNL1        0.0661
     33 H          -4.1915   -1.6893    0.7748 H       1  UNL1        0.0639
     34 H          -6.5193   -1.0836    1.3983 H       1  UNL1        0.0619
     35 H          -7.1948    1.3233    1.3842 H       1  UNL1        0.0633
     36 H          -5.4867    3.0282    0.7420 H       1  UNL1        0.0830
     37 H          -3.7650   -1.3201   -1.9418 H       1  UNL1        0.0700
     38 H           0.5731   -2.2821   -2.9401 H       1  UNL1        0.0700
@<TRIPOS>BOND
     1     1     2    1
     2     2     3    2
     3     3     4    1
     4     4     5   ar
     5     5     6   ar
     6     6     7   ar
     7     7     8   ar
     8     8     9   ar
     9     9    10   ar
    10    10    11   ar
    11    11    12   ar
    12    12    13    1
    13    13    14   ar
    14    14    15   ar
    15    15    16   ar
    16    16    17   ar
    17    17    18   ar
    18    12    19   ar
    19    19    20   ar
    20    20    21   ar
    21    21    22   ar
    22    22    23   ar
    23    23    24   ar
    24     8    25   ar
    25    25     1    1
    26    25     4   ar
    27    24     7   ar
    28    24    10   ar
    29    18    13   ar
    30    23    19   ar
    31     1    26    1
    32     1    27    1
    33     2    28    1
    34     3    29    1
    35     5    30    1
    36     6    31    1
    37    11    32    1
    38    14    33    1
    39    15    34    1
    40    16    35    1
    41    17    36    1
    42    20    37    1
    43    22    38    1
