@<TRIPOS>MOLECULE
*****
 39 45 0 0 0
SMALL
GASTEIGER

@<TRIPOS>ATOM
      1 C           4.9591   -1.4341   -0.0134 C.3     1  UNL1       -0.0080
      2 C           6.1580   -0.5242   -0.1389 C.2     1  UNL1       -0.0791
      3 C           5.8184    0.7703   -0.2343 C.2     1  UNL1       -0.0579
      4 C           4.3693    0.8482   -0.1819 C.ar    1  UNL1       -0.0212
      5 C           3.5541    1.9618   -0.2424 C.ar    1  UNL1       -0.0537
      6 C           2.1670    1.7824   -0.1708 C.ar    1  UNL1       -0.0531
      7 C           1.5839    0.4999   -0.0391 C.ar    1  UNL1       -0.0113
      8 C           0.1832    0.3322    0.0320 C.ar    1  UNL1       -0.0260
      9 C          -0.9016    1.3800   -0.0097 C.3     1  UNL1       -0.0001
     10 C          -2.1786    0.5408    0.0988 C.2     1  UNL1       -0.0281
     11 C          -1.8923   -0.7724    0.2099 C.2     1  UNL1       -0.0476
     12 C          -0.4542   -0.9110    0.1637 C.ar    1  UNL1        0.0075
     13 C           0.3203   -2.0772    0.2300 C.ar    1  UNL1        0.1079
     14 N          -0.1070   -3.3439    0.3519 N.ar    1  UNL1       -0.1902
     15 S           1.2547   -4.2922    0.3785 S.2     1  UNL1        0.1165
     16 N           2.4431   -3.1438    0.2327 N.ar    1  UNL1       -0.1901
     17 C           1.8276   -1.9493    0.1576 C.ar    1  UNL1        0.1084
     18 C           2.4491   -0.6450    0.0222 C.ar    1  UNL1        0.0146
     19 C           3.8353   -0.4396   -0.0516 C.ar    1  UNL1       -0.0267
     20 C          -3.5269    1.0056    0.1114 C.ar    1  UNL1        0.0239
     21 S          -3.8950    2.5788    0.7596 S.2     1  UNL1       -0.0952
     22 C          -5.5823    2.4356    0.4705 C.ar    1  UNL1       -0.0094
     23 C          -5.8613    1.2403   -0.1220 C.ar    1  UNL1        0.0269
     24 S          -7.4277    0.5453   -0.6768 S.2     1  UNL1       -0.0961
     25 C          -6.4586   -0.8213   -1.2026 C.ar    1  UNL1       -0.0231
     26 C          -5.0823   -0.7337   -0.9626 C.ar    1  UNL1       -0.0459
     27 C          -4.7090    0.4756   -0.3094 C.ar    1  UNL1        0.0037
     28 H           4.9874   -1.9740    0.9374 H       1  UNL1        0.0356
     29 H           4.9143   -2.1257   -0.8595 H       1  UNL1        0.0356
     30 H           7.1738   -0.8934   -0.1490 H       1  UNL1        0.0575
     31 H           6.4795    1.6159   -0.3324 H       1  UNL1        0.0621
     32 H           3.9752    2.9572   -0.3431 H       1  UNL1        0.0624
     33 H           1.5390    2.6703   -0.2196 H       1  UNL1        0.0624
     34 H          -0.8800    1.9269   -0.9577 H       1  UNL1        0.0362
     35 H          -0.8056    2.0639    0.8395 H       1  UNL1        0.0362
     36 H          -2.5653   -1.6063    0.3307 H       1  UNL1        0.0627
     37 H          -6.2858    3.2144    0.7308 H       1  UNL1        0.0705
     38 H          -6.9797   -1.6399   -1.6804 H       1  UNL1        0.0694
     39 H          -4.3988   -1.5185   -1.2613 H       1  UNL1        0.0629
@<TRIPOS>BOND
     1     1     2    1
     2     2     3    2
     3     3     4    1
     4     4     5   ar
     5     5     6   ar
     6     6     7   ar
     7     7     8   ar
     8     8     9    1
     9     9    10    1
    10    10    11    2
    11    11    12    1
    12    12    13   ar
    13    13    14   ar
    14    14    15   ar
    15    15    16   ar
    16    16    17   ar
    17    17    18   ar
    18    18    19   ar
    19    10    20    1
    20    20    21   ar
    21    21    22   ar
    22    22    23   ar
    23    23    24   ar
    24    24    25   ar
    25    25    26   ar
    26    26    27   ar
    27    19     1    1
    28    27    20   ar
    29    19     4   ar
    30    27    23   ar
    31    18     7   ar
    32    12     8   ar
    33    17    13   ar
    34     1    28    1
    35     1    29    1
    36     2    30    1
    37     3    31    1
    38     5    32    1
    39     6    33    1
    40     9    34    1
    41     9    35    1
    42    11    36    1
    43    22    37    1
    44    25    38    1
    45    26    39    1
