@<TRIPOS>MOLECULE
*****
 40 45 0 0 0
SMALL
GASTEIGER

@<TRIPOS>ATOM
      1 C           4.8912    1.3596    0.9590 C.3     1  UNL1       -0.0066
      2 C           6.3222    0.9840    0.6637 C.2     1  UNL1       -0.0791
      3 C           6.4254   -0.1495   -0.0490 C.2     1  UNL1       -0.0579
      4 C           5.0810   -0.6442   -0.3013 C.ar    1  UNL1       -0.0199
      5 C           4.6845   -1.7746   -0.9898 C.ar    1  UNL1       -0.0536
      6 C           3.3139   -2.0520   -1.1045 C.ar    1  UNL1       -0.0514
      7 C           2.3543   -1.1833   -0.5228 C.ar    1  UNL1        0.0092
      8 C           0.9247   -1.1787   -0.4577 C.ar    1  UNL1        0.0255
      9 C          -0.0784   -2.0283   -0.9338 C.ar    1  UNL1        0.0380
     10 N          -1.3868   -1.7527   -0.7035 N.ar    1  UNL1       -0.2542
     11 C          -1.7370   -0.6314   -0.0209 C.ar    1  UNL1        0.0736
     12 C          -0.7976    0.2578    0.5017 C.ar    1  UNL1       -0.0117
     13 C           0.5420   -0.0470    0.2589 C.ar    1  UNL1        0.0510
     14 N           1.6903    0.6118    0.6285 N.ar    1  UNL1       -0.3538
     15 C           2.7994   -0.0505    0.1657 C.ar    1  UNL1        0.0516
     16 C           4.1565    0.2338    0.2860 C.ar    1  UNL1       -0.0126
     17 C          -3.1716   -0.4520    0.1771 C.ar    1  UNL1        0.0095
     18 C          -4.0528   -1.4966    0.5836 C.ar    1  UNL1       -0.0519
     19 C          -5.4671   -1.3446    0.8075 C.ar    1  UNL1       -0.0605
     20 C          -6.1668   -0.1309    0.6407 C.ar    1  UNL1       -0.0526
     21 C          -5.3043    0.8728    0.2230 C.ar    1  UNL1        0.0000
     22 C          -5.6679    2.1623   -0.0663 C.ar    1  UNL1        0.0094
     23 N          -4.5275    2.8142   -0.4812 N.ar    1  UNL1       -0.3659
     24 C          -3.4475    1.9551   -0.4534 C.ar    1  UNL1        0.0100
     25 C          -3.8972    0.7368    0.0008 C.ar    1  UNL1        0.0086
     26 H           4.6995    1.3696    2.0356 H       1  UNL1        0.0356
     27 H           4.6351    2.3234    0.5103 H       1  UNL1        0.0356
     28 H           7.1648    1.5733    0.9967 H       1  UNL1        0.0575
     29 H           7.3288   -0.6304   -0.3874 H       1  UNL1        0.0621
     30 H           5.4151   -2.4413   -1.4364 H       1  UNL1        0.0624
     31 H           2.9885   -2.9380   -1.6430 H       1  UNL1        0.0624
     32 H           0.1296   -2.9316   -1.4950 H       1  UNL1        0.0836
     33 H          -1.0914    1.1256    1.0790 H       1  UNL1        0.0660
     34 H           1.7149    1.4663    1.1653 H       1  UNL1        0.1659
     35 H          -3.6247   -2.4893    0.7395 H       1  UNL1        0.0624
     36 H          -6.0273   -2.2263    1.1199 H       1  UNL1        0.0618
     37 H          -7.2295   -0.0263    0.8025 H       1  UNL1        0.0624
     38 H          -6.6193    2.6754   -0.0360 H       1  UNL1        0.0813
     39 H          -4.4910    3.7787   -0.7843 H       1  UNL1        0.1648
     40 H          -2.4758    2.2991   -0.7793 H       1  UNL1        0.0813
@<TRIPOS>BOND
     1     1     2    1
     2     2     3    2
     3     3     4    1
     4     4     5   ar
     5     5     6   ar
     6     6     7   ar
     7     7     8   ar
     8     8     9   ar
     9     9    10   ar
    10    10    11   ar
    11    11    12   ar
    12    12    13   ar
    13    13    14   ar
    14    14    15   ar
    15    15    16   ar
    16    11    17    1
    17    17    18   ar
    18    18    19   ar
    19    19    20   ar
    20    20    21   ar
    21    21    22   ar
    22    22    23   ar
    23    23    24   ar
    24    24    25   ar
    25    16     1    1
    26    25    17   ar
    27    16     4   ar
    28    25    21   ar
    29    15     7   ar
    30    13     8   ar
    31     1    26    1
    32     1    27    1
    33     2    28    1
    34     3    29    1
    35     5    30    1
    36     6    31    1
    37     9    32    1
    38    12    33    1
    39    14    34    1
    40    18    35    1
    41    19    36    1
    42    20    37    1
    43    22    38    1
    44    23    39    1
    45    24    40    1
