@<TRIPOS>MOLECULE
*****
 49 55 0 0 0
SMALL
GASTEIGER

@<TRIPOS>ATOM
      1 C          -5.8023   -0.4123   -0.5245 C.3     1  UNL1        0.0000
      2 C          -6.8402    0.4859   -1.1472 C.2     1  UNL1        0.0000
      3 C          -6.3173    1.6309   -1.6042 C.2     1  UNL1        0.0000
      4 C          -4.8919    1.5984   -1.3285 C.ar    1  UNL1        0.0000
      5 C          -3.9541    2.5623   -1.6224 C.ar    1  UNL1        0.0000
      6 C          -2.6325    2.3127   -1.2606 C.ar    1  UNL1        0.0000
      7 C          -2.2348    1.1121   -0.6085 C.ar    1  UNL1        0.0000
      8 C          -0.8007    0.9146   -0.2509 C.ar    1  UNL1        0.0000
      9 N           0.0435    1.9312   -0.5887 N.ar    1  UNL1        0.0000
     10 C           1.3544    1.7978   -0.2848 C.ar    1  UNL1        0.0000
     11 C           1.9025    0.6908    0.3489 C.ar    1  UNL1        0.0000
     12 C           1.0229   -0.3411    0.6900 C.ar    1  UNL1        0.0000
     13 C          -0.3449   -0.2456    0.3934 C.ar    1  UNL1        0.0000
     14 C          -1.3256   -1.2955    0.7199 C.ar    1  UNL1        0.0000
     15 C          -1.0269   -2.4602    1.3351 C.2     1  UNL1        0.0000
     16 SI         -2.5336   -3.5242    1.5712 Si      1  UNL1        0.0000
     17 C          -3.5232   -2.1743    0.7400 C.2     1  UNL1        0.0000
     18 C          -2.7606   -1.1213    0.3729 C.ar    1  UNL1        0.0000
     19 C          -3.2211    0.1207   -0.3103 C.ar    1  UNL1        0.0000
     20 C          -4.5443    0.3951   -0.6844 C.ar    1  UNL1        0.0000
     21 C           3.3366    0.6081    0.6505 C.ar    1  UNL1        0.0000
     22 C           3.7748    1.0379    1.9168 C.ar    1  UNL1        0.0000
     23 C           5.1210    0.9891    2.2631 C.ar    1  UNL1        0.0000
     24 C           6.0532    0.5083    1.3485 C.ar    1  UNL1        0.0000
     25 C           5.6555    0.0686    0.0774 C.ar    1  UNL1        0.0000
     26 C           6.6116   -0.4147   -0.8314 C.ar    1  UNL1        0.0000
     27 C           6.2385   -0.8584   -2.0990 C.ar    1  UNL1        0.0000
     28 C           4.9026   -0.8254   -2.4750 C.ar    1  UNL1        0.0000
     29 C           3.9398   -0.3476   -1.5831 C.ar    1  UNL1        0.0000
     30 C           4.2859    0.1119   -0.2897 C.ar    1  UNL1        0.0000
     31 H          -6.0421   -0.5784    0.5297 H       1  UNL1        0.0000
     32 H          -5.7487   -1.3539   -1.0784 H       1  UNL1        0.0000
     33 H          -7.8863    0.2220   -1.2107 H       1  UNL1        0.0000
     34 H          -6.8341    2.4424   -2.0900 H       1  UNL1        0.0000
     35 H          -4.2261    3.4875   -2.1184 H       1  UNL1        0.0000
     36 H          -1.8874    3.0736   -1.4915 H       1  UNL1        0.0000
     37 H           1.9768    2.6395   -0.5795 H       1  UNL1        0.0000
     38 H           1.4236   -1.2207    1.1857 H       1  UNL1        0.0000
     39 H          -0.0674   -2.8096    1.6781 H       1  UNL1        0.0000
     40 H          -2.8962   -3.6931    2.9985 H       1  UNL1        0.0000
     41 H          -2.4876   -4.7680    0.7661 H       1  UNL1        0.0000
     42 H          -4.5782   -2.3310    0.6217 H       1  UNL1        0.0000
     43 H           3.0571    1.4178    2.6423 H       1  UNL1        0.0000
     44 H           5.4441    1.3261    3.2446 H       1  UNL1        0.0000
     45 H           7.1018    0.4786    1.6377 H       1  UNL1        0.0000
     46 H           7.6638   -0.4495   -0.5561 H       1  UNL1        0.0000
     47 H           6.9911   -1.2289   -2.7899 H       1  UNL1        0.0000
     48 H           4.6039   -1.1703   -3.4615 H       1  UNL1        0.0000
     49 H           2.9031   -0.3398   -1.9148 H       1  UNL1        0.0000
@<TRIPOS>BOND
     1     1     2    1
     2     2     3    2
     3     3     4    1
     4     4     5   ar
     5     5     6   ar
     6     6     7   ar
     7     7     8   ar
     8     8     9   ar
     9     9    10   ar
    10    10    11   ar
    11    11    12   ar
    12    12    13   ar
    13    13    14   ar
    14    14    15    2
    15    15    16    1
    16    16    17    1
    17    17    18    2
    18    18    19   ar
    19    19    20   ar
    20    11    21    1
    21    21    22   ar
    22    22    23   ar
    23    23    24   ar
    24    24    25   ar
    25    25    26   ar
    26    26    27   ar
    27    27    28   ar
    28    28    29   ar
    29    29    30   ar
    30    20     1    1
    31    30    21   ar
    32    20     4   ar
    33    30    25   ar
    34    19     7   ar
    35    13     8   ar
    36    18    14   ar
    37     1    31    1
    38     1    32    1
    39     2    33    1
    40     3    34    1
    41     5    35    1
    42     6    36    1
    43    10    37    1
    44    12    38    1
    45    15    39    1
    46    16    40    1
    47    16    41    1
    48    17    42    1
    49    22    43    1
    50    23    44    1
    51    24    45    1
    52    26    46    1
    53    27    47    1
    54    28    48    1
    55    29    49    1
