@<TRIPOS>MOLECULE
*****
 42 47 0 0 0
SMALL
GASTEIGER

@<TRIPOS>ATOM
      1 C          -5.1719    0.2314   -0.1422 C.3     1  UNL1       -0.0080
      2 C          -6.2208   -0.7917    0.2205 C.2     1  UNL1       -0.0791
      3 C          -5.6869   -1.9475    0.6425 C.2     1  UNL1       -0.0579
      4 C          -4.2427   -1.8022    0.6003 C.ar    1  UNL1       -0.0212
      5 C          -3.2680   -2.7173    0.9383 C.ar    1  UNL1       -0.0537
      6 C          -1.9224   -2.3419    0.8121 C.ar    1  UNL1       -0.0514
      7 C          -1.5064   -1.0653    0.3533 C.ar    1  UNL1        0.0090
      8 C          -0.0899   -0.7690    0.2561 C.ar    1  UNL1        0.0793
      9 N           0.8228   -1.7048    0.5995 N.ar    1  UNL1       -0.2537
     10 C           2.1519   -1.4254    0.5085 C.ar    1  UNL1        0.0360
     11 C           2.6992   -0.2222    0.0765 C.ar    1  UNL1        0.0008
     12 C           1.7822    0.7609   -0.2831 C.ar    1  UNL1       -0.0427
     13 C           0.3955    0.4951   -0.1964 C.ar    1  UNL1        0.0107
     14 C          -0.6403    1.3926   -0.5293 C.ar    1  UNL1        0.0092
     15 C          -0.5079    2.6791   -0.9948 C.ar    1  UNL1        0.0101
     16 N          -1.7778    3.1743   -1.1843 N.ar    1  UNL1       -0.3659
     17 C          -2.7125    2.2199   -0.8448 C.ar    1  UNL1        0.0100
     18 C          -2.0304    1.0997   -0.4337 C.ar    1  UNL1        0.0081
     19 C          -2.5602   -0.1371    0.0100 C.ar    1  UNL1       -0.0027
     20 C          -3.9093   -0.5243    0.1403 C.ar    1  UNL1       -0.0281
     21 C           4.1499   -0.0030    0.0055 C.ar    1  UNL1       -0.0164
     22 C           4.9880   -0.9064   -0.6700 C.ar    1  UNL1       -0.0540
     23 C           6.3683   -0.6977   -0.7368 C.ar    1  UNL1       -0.0612
     24 C           6.9352    0.4188   -0.1280 C.ar    1  UNL1       -0.0617
     25 C           6.1235    1.3269    0.5463 C.ar    1  UNL1       -0.0612
     26 C           4.7432    1.1177    0.6112 C.ar    1  UNL1       -0.0540
     27 H          -5.2524    0.4994   -1.1994 H       1  UNL1        0.0356
     28 H          -5.2646    1.1135    0.4976 H       1  UNL1        0.0356
     29 H          -7.2814   -0.5996    0.1434 H       1  UNL1        0.0575
     30 H          -6.2082   -2.8357    0.9601 H       1  UNL1        0.0621
     31 H          -3.5269   -3.7087    1.2952 H       1  UNL1        0.0624
     32 H          -1.1673   -3.0806    1.0849 H       1  UNL1        0.0624
     33 H           2.7930   -2.2466    0.8225 H       1  UNL1        0.0836
     34 H           2.1296    1.7252   -0.6419 H       1  UNL1        0.0631
     35 H           0.3548    3.2937   -1.2122 H       1  UNL1        0.0813
     36 H          -1.9946    4.1028   -1.5237 H       1  UNL1        0.1648
     37 H          -3.7636    2.4493   -0.9361 H       1  UNL1        0.0813
     38 H           4.5682   -1.7800   -1.1657 H       1  UNL1        0.0624
     39 H           6.9988   -1.4068   -1.2673 H       1  UNL1        0.0618
     40 H           8.0087    0.5808   -0.1790 H       1  UNL1        0.0618
     41 H           6.5631    2.1977    1.0257 H       1  UNL1        0.0618
     42 H           4.1307    1.8350    1.1545 H       1  UNL1        0.0624
@<TRIPOS>BOND
     1     1     2    1
     2     2     3    2
     3     3     4    1
     4     4     5   ar
     5     5     6   ar
     6     6     7   ar
     7     7     8   ar
     8     8     9   ar
     9     9    10   ar
    10    10    11   ar
    11    11    12   ar
    12    12    13   ar
    13    13    14   ar
    14    14    15   ar
    15    15    16   ar
    16    16    17   ar
    17    17    18   ar
    18    18    19   ar
    19    19    20   ar
    20    11    21    1
    21    21    22   ar
    22    22    23   ar
    23    23    24   ar
    24    24    25   ar
    25    25    26   ar
    26    20     1    1
    27    26    21   ar
    28    20     4   ar
    29    19     7   ar
    30    13     8   ar
    31    18    14   ar
    32     1    27    1
    33     1    28    1
    34     2    29    1
    35     3    30    1
    36     5    31    1
    37     6    32    1
    38    10    33    1
    39    12    34    1
    40    15    35    1
    41    16    36    1
    42    17    37    1
    43    22    38    1
    44    23    39    1
    45    24    40    1
    46    25    41    1
    47    26    42    1
