@<TRIPOS>MOLECULE
*****
 41 46 0 0 0
SMALL
GASTEIGER

@<TRIPOS>ATOM
      1 C           4.6031   -0.1184    0.1131 C.3     1  UNL1        0.0000
      2 C           5.4576   -1.3500    0.2602 C.2     1  UNL1        0.0000
      3 C           4.7294   -2.4640    0.4038 C.2     1  UNL1        0.0000
      4 C           3.3298   -2.0782    0.3656 C.ar    1  UNL1        0.0000
      5 C           2.2320   -2.9048    0.4761 C.ar    1  UNL1        0.0000
      6 C           0.9767   -2.3170    0.4119 C.ar    1  UNL1        0.0000
      7 C           0.8439   -0.9141    0.2385 C.ar    1  UNL1        0.0000
      8 C          -0.4567   -0.3869    0.1822 C.ar    1  UNL1        0.0000
      9 O          -1.6113   -1.1032    0.2795 O.2     1  UNL1        0.0000
     10 C          -2.6913   -0.2517    0.1815 C.ar    1  UNL1        0.0000
     11 C          -2.1716    1.0284    0.0186 C.ar    1  UNL1        0.0000
     12 C          -0.7462    0.9522    0.0178 C.ar    1  UNL1        0.0000
     13 C           0.3303    1.8650   -0.1033 C.ar    1  UNL1        0.0000
     14 C           0.0196    3.2336   -0.2713 C.ar    1  UNL1        0.0000
     15 C           1.0300    4.1783   -0.3959 C.ar    1  UNL1        0.0000
     16 C           2.3518    3.7667   -0.3542 C.ar    1  UNL1        0.0000
     17 C           2.6649    2.4105   -0.1878 C.ar    1  UNL1        0.0000
     18 C           1.6799    1.3992   -0.0550 C.ar    1  UNL1        0.0000
     19 C           1.9480   -0.0217    0.1197 C.ar    1  UNL1        0.0000
     20 C           3.2067   -0.6783    0.1925 C.ar    1  UNL1        0.0000
     21 C          -4.0279   -0.7137    0.2487 C.2     1  UNL1        0.0000
     22 C          -4.3673   -2.0098    0.4116 C.2     1  UNL1        0.0000
     23 C          -5.7976   -2.2802    0.4560 C.2     1  UNL1        0.0000
     24 C          -6.5870   -1.1981    0.3282 C.2     1  UNL1        0.0000
     25 SI         -5.5577    0.3621    0.1273 Si      1  UNL1        0.0000
     26 H           4.8056    0.5705    0.9382 H       1  UNL1        0.0000
     27 H           4.7931    0.3470   -0.8583 H       1  UNL1        0.0000
     28 H           6.5379   -1.3222    0.2493 H       1  UNL1        0.0000
     29 H           5.0889   -3.4726    0.5267 H       1  UNL1        0.0000
     30 H           2.3383   -3.9756    0.6085 H       1  UNL1        0.0000
     31 H           0.0940   -2.9481    0.4966 H       1  UNL1        0.0000
     32 H          -2.7543    1.9317   -0.0895 H       1  UNL1        0.0000
     33 H          -1.0115    3.5755   -0.3065 H       1  UNL1        0.0000
     34 H           0.7859    5.2291   -0.5249 H       1  UNL1        0.0000
     35 H           3.1516    4.4971   -0.4508 H       1  UNL1        0.0000
     36 H           3.7203    2.1739   -0.1660 H       1  UNL1        0.0000
     37 H          -3.6530   -2.8198    0.5065 H       1  UNL1        0.0000
     38 H          -6.1691   -3.2896    0.5836 H       1  UNL1        0.0000
     39 H          -7.6651   -1.1736    0.3333 H       1  UNL1        0.0000
     40 H          -5.7163    1.2892    1.2763 H       1  UNL1        0.0000
     41 H          -5.7352    0.9816   -1.2104 H       1  UNL1        0.0000
@<TRIPOS>BOND
     1     1     2    1
     2     2     3    2
     3     3     4    1
     4     4     5   ar
     5     5     6   ar
     6     6     7   ar
     7     7     8   ar
     8     8     9   ar
     9     9    10   ar
    10    10    11   ar
    11    11    12   ar
    12    12    13   ar
    13    13    14   ar
    14    14    15   ar
    15    15    16   ar
    16    16    17   ar
    17    17    18   ar
    18    18    19   ar
    19    19    20   ar
    20    10    21    1
    21    21    22    2
    22    22    23    1
    23    23    24    2
    24    24    25    1
    25    20     1    1
    26    25    21    1
    27    20     4   ar
    28    19     7   ar
    29    12     8   ar
    30    18    13   ar
    31     1    26    1
    32     1    27    1
    33     2    28    1
    34     3    29    1
    35     5    30    1
    36     6    31    1
    37    11    32    1
    38    14    33    1
    39    15    34    1
    40    16    35    1
    41    17    36    1
    42    22    37    1
    43    23    38    1
    44    24    39    1
    45    25    40    1
    46    25    41    1
