@<TRIPOS>MOLECULE
*****
 49 56 0 0 0
SMALL
GASTEIGER

@<TRIPOS>ATOM
      1 C           6.8211   -1.0411    0.9937 C.3     1  UNL1       -0.0066
      2 C           7.8054   -1.5944   -0.0104 C.2     1  UNL1       -0.0790
      3 C           7.3038   -1.6532   -1.2556 C.2     1  UNL1       -0.0564
      4 C           5.9418   -1.1482   -1.2086 C.ar    1  UNL1       -0.0017
      5 C           4.9998   -0.9991   -2.2103 C.ar    1  UNL1        0.0358
      6 N           3.7495   -0.5069   -2.0189 N.ar    1  UNL1       -0.2508
      7 C           3.4914   -0.1634   -0.7362 C.ar    1  UNL1        0.1126
      8 C           4.3702   -0.2752    0.3427 C.ar    1  UNL1        0.0716
      9 N           3.7341    0.1768    1.4751 N.ar    1  UNL1       -0.3514
     10 C           2.4653    0.5664    1.1216 C.ar    1  UNL1        0.0675
     11 C           1.2692    1.1024    1.6589 C.ar    1  UNL1       -0.0118
     12 C           0.4030    1.1959    0.5789 C.ar    1  UNL1        0.0562
     13 N           1.0410    0.7655   -0.5642 N.ar    1  UNL1       -0.3508
     14 C           2.3005    0.3713   -0.2143 C.ar    1  UNL1        0.0911
     15 C          -0.9431    1.6948    0.5401 C.ar    1  UNL1        0.0438
     16 S          -1.1328    3.3936    0.7598 S.2     1  UNL1       -0.0940
     17 C          -2.8039    3.3253    0.4442 C.ar    1  UNL1       -0.0154
     18 C          -3.2352    2.0407    0.2060 C.ar    1  UNL1       -0.0019
     19 C          -2.1621    1.0661    0.3110 C.ar    1  UNL1        0.0066
     20 C          -2.3845   -0.3467    0.1543 C.ar    1  UNL1       -0.0084
     21 C          -1.4179   -1.3787    0.3197 C.ar    1  UNL1       -0.0534
     22 C          -1.7384   -2.7162    0.1209 C.ar    1  UNL1       -0.0611
     23 C          -3.0290   -3.0560   -0.2334 C.ar    1  UNL1       -0.0611
     24 C          -4.0026   -2.0595   -0.3707 C.ar    1  UNL1       -0.0534
     25 C          -3.7484   -0.6768   -0.1771 C.ar    1  UNL1       -0.0095
     26 C          -4.8179    0.3319   -0.3010 C.ar    1  UNL1       -0.0096
     27 C          -6.1619    0.0019   -0.6208 C.ar    1  UNL1       -0.0534
     28 C          -7.1903    0.9496   -0.7291 C.ar    1  UNL1       -0.0611
     29 C          -6.9271    2.2921   -0.5209 C.ar    1  UNL1       -0.0611
     30 C          -5.6343    2.6875   -0.2066 C.ar    1  UNL1       -0.0534
     31 C          -4.5876    1.7297   -0.0973 C.ar    1  UNL1       -0.0091
     32 C           5.6385   -0.7825    0.1085 C.ar    1  UNL1       -0.0096
     33 H           7.1922   -0.1153    1.4418 H       1  UNL1        0.0356
     34 H           6.5864   -1.7798    1.7650 H       1  UNL1        0.0356
     35 H           8.8048   -1.9054    0.2601 H       1  UNL1        0.0575
     36 H           7.7993   -2.0059   -2.1457 H       1  UNL1        0.0621
     37 H           5.2257   -1.2795   -3.2345 H       1  UNL1        0.0836
     38 H           4.0996    0.2290    2.4167 H       1  UNL1        0.1660
     39 H           1.0575    1.3811    2.6822 H       1  UNL1        0.0660
     40 H           0.6802    0.7232   -1.5098 H       1  UNL1        0.1660
     41 H          -3.3646    4.2480    0.4542 H       1  UNL1        0.0700
     42 H          -0.4038   -1.1633    0.6315 H       1  UNL1        0.0624
     43 H          -0.9807   -3.4842    0.2489 H       1  UNL1        0.0618
     44 H          -3.2940   -4.0979   -0.3936 H       1  UNL1        0.0618
     45 H          -4.9942   -2.4140   -0.6365 H       1  UNL1        0.0624
     46 H          -6.4570   -1.0284   -0.7975 H       1  UNL1        0.0624
     47 H          -8.1981    0.6251   -0.9769 H       1  UNL1        0.0618
     48 H          -7.7219    3.0279   -0.6040 H       1  UNL1        0.0618
     49 H          -5.4485    3.7456   -0.0511 H       1  UNL1        0.0624
@<TRIPOS>BOND
     1     1     2    1
     2     2     3    2
     3     3     4    1
     4     4     5   ar
     5     5     6   ar
     6     6     7   ar
     7     7     8   ar
     8     8     9   ar
     9     9    10   ar
    10    10    11   ar
    11    11    12   ar
    12    12    13   ar
    13    13    14   ar
    14    12    15    1
    15    15    16   ar
    16    16    17   ar
    17    17    18   ar
    18    18    19   ar
    19    19    20   ar
    20    20    21   ar
    21    21    22   ar
    22    22    23   ar
    23    23    24   ar
    24    24    25   ar
    25    25    26   ar
    26    26    27   ar
    27    27    28   ar
    28    28    29   ar
    29    29    30   ar
    30    30    31   ar
    31     8    32   ar
    32    32     1    1
    33    32     4   ar
    34    14     7   ar
    35    19    15   ar
    36    25    20   ar
    37    31    26   ar
    38    14    10   ar
    39    31    18   ar
    40     1    33    1
    41     1    34    1
    42     2    35    1
    43     3    36    1
    44     5    37    1
    45     9    38    1
    46    11    39    1
    47    13    40    1
    48    17    41    1
    49    21    42    1
    50    22    43    1
    51    23    44    1
    52    24    45    1
    53    27    46    1
    54    28    47    1
    55    29    48    1
    56    30    49    1
