@<TRIPOS>MOLECULE
*****
 47 53 0 0 0
SMALL
GASTEIGER

@<TRIPOS>ATOM
      1 C          -5.4539    1.3034   -0.2024 C.3     1  UNL1       -0.0079
      2 C          -6.5921    0.5425    0.4349 C.2     1  UNL1       -0.0791
      3 C          -6.1760   -0.5586    1.0784 C.2     1  UNL1       -0.0565
      4 C          -4.7369   -0.6229    0.9246 C.ar    1  UNL1       -0.0031
      5 C          -3.8223   -1.5296    1.3771 C.ar    1  UNL1        0.0357
      6 N          -2.4914   -1.4171    1.1257 N.ar    1  UNL1       -0.2537
      7 C          -1.9628   -0.3959    0.4053 C.ar    1  UNL1        0.0802
      8 C          -2.9049    0.5838   -0.0898 C.ar    1  UNL1        0.0158
      9 C          -4.2812    0.4532    0.1793 C.ar    1  UNL1       -0.0252
     10 C          -2.2800    1.6082   -0.8252 C.ar    1  UNL1        0.0299
     11 C          -2.8434    2.6975   -1.4412 C.ar    1  UNL1        0.1000
     12 O          -1.8737    3.4437   -2.0464 O.2     1  UNL1       -0.4698
     13 C          -0.6831    2.8212   -1.8118 C.ar    1  UNL1        0.1000
     14 C          -0.8888    1.6878   -1.0638 C.ar    1  UNL1        0.0283
     15 C           0.0624    0.7597   -0.6027 C.ar    1  UNL1       -0.0039
     16 C           1.4309    0.9085   -0.8823 C.ar    1  UNL1       -0.0450
     17 C           2.3578   -0.0197   -0.4178 C.ar    1  UNL1       -0.0096
     18 C           3.7738    0.2117   -0.7563 C.ar    1  UNL1       -0.0173
     19 C           4.3229   -0.3128   -1.9368 C.ar    1  UNL1       -0.0540
     20 C           5.6621   -0.0865   -2.2613 C.ar    1  UNL1       -0.0612
     21 C           6.4674    0.6692   -1.4113 C.ar    1  UNL1       -0.0617
     22 C           5.9358    1.1997   -0.2373 C.ar    1  UNL1       -0.0612
     23 C           4.5967    0.9737    0.0877 C.ar    1  UNL1       -0.0540
     24 C           1.9076   -1.1234    0.3443 C.ar    1  UNL1       -0.0095
     25 C           2.8443   -2.0755    0.8227 C.ar    1  UNL1       -0.0534
     26 C           2.4707   -3.1812    1.5757 C.ar    1  UNL1       -0.0611
     27 C           1.1388   -3.3637    1.8717 C.ar    1  UNL1       -0.0611
     28 C           0.1934   -2.4401    1.4126 C.ar    1  UNL1       -0.0534
     29 C           0.5086   -1.2884    0.6383 C.ar    1  UNL1       -0.0075
     30 C          -0.4907   -0.3254    0.1615 C.ar    1  UNL1        0.0165
     31 H          -5.5856    1.3450   -1.2873 H       1  UNL1        0.0356
     32 H          -5.3810    2.3068    0.2264 H       1  UNL1        0.0356
     33 H          -7.6228    0.8625    0.3710 H       1  UNL1        0.0575
     34 H          -6.7771   -1.2748    1.6147 H       1  UNL1        0.0621
     35 H          -4.1116   -2.3938    1.9654 H       1  UNL1        0.0836
     36 H          -3.8434    3.0883   -1.5542 H       1  UNL1        0.1036
     37 H           0.1803    3.3108   -2.2397 H       1  UNL1        0.1036
     38 H           1.7892    1.7528   -1.4672 H       1  UNL1        0.0630
     39 H           3.7046   -0.9062   -2.6076 H       1  UNL1        0.0624
     40 H           6.0756   -0.5009   -3.1771 H       1  UNL1        0.0618
     41 H           7.5099    0.8448   -1.6638 H       1  UNL1        0.0618
     42 H           6.5628    1.7891    0.4266 H       1  UNL1        0.0618
     43 H           4.1935    1.3915    1.0082 H       1  UNL1        0.0624
     44 H           3.9066   -1.9655    0.6092 H       1  UNL1        0.0624
     45 H           3.2180   -3.8878    1.9237 H       1  UNL1        0.0618
     46 H           0.8172   -4.2195    2.4590 H       1  UNL1        0.0618
     47 H          -0.8283   -2.6662    1.6944 H       1  UNL1        0.0624
@<TRIPOS>BOND
     1     1     2    1
     2     2     3    2
     3     3     4    1
     4     4     5   ar
     5     5     6   ar
     6     6     7   ar
     7     7     8   ar
     8     8     9   ar
     9     8    10   ar
    10    10    11   ar
    11    11    12   ar
    12    12    13   ar
    13    13    14   ar
    14    14    15   ar
    15    15    16   ar
    16    16    17   ar
    17    17    18    1
    18    18    19   ar
    19    19    20   ar
    20    20    21   ar
    21    21    22   ar
    22    22    23   ar
    23    17    24   ar
    24    24    25   ar
    25    25    26   ar
    26    26    27   ar
    27    27    28   ar
    28    28    29   ar
    29    29    30   ar
    30     9     1    1
    31    14    10   ar
    32    30    15   ar
    33     9     4   ar
    34    23    18   ar
    35    29    24   ar
    36    30     7   ar
    37     1    31    1
    38     1    32    1
    39     2    33    1
    40     3    34    1
    41     5    35    1
    42    11    36    1
    43    13    37    1
    44    16    38    1
    45    19    39    1
    46    20    40    1
    47    21    41    1
    48    22    42    1
    49    23    43    1
    50    25    44    1
    51    26    45    1
    52    27    46    1
    53    28    47    1
