@<TRIPOS>MOLECULE
*****
 47 53 0 0 0
SMALL
GASTEIGER

@<TRIPOS>ATOM
      1 SI         -1.1900   -3.9904    0.0980 Si      1  UNL1        0.0000
      2 C          -2.2217   -2.4560    0.2646 C.2     1  UNL1        0.0000
      3 C          -1.4889   -1.3343    0.1280 C.ar    1  UNL1        0.0000
      4 C          -1.9359    0.0234    0.2213 C.ar    1  UNL1        0.0000
      5 C          -0.9749    1.0220    0.3804 C.ar    1  UNL1        0.0000
      6 N          -1.6315    2.2096    0.6088 N.ar    1  UNL1        0.0000
      7 C          -2.9950    2.0460    0.4846 C.ar    1  UNL1        0.0000
      8 C          -4.0457    2.9956    0.6005 C.ar    1  UNL1        0.0000
      9 C          -5.3841    2.6266    0.3687 C.ar    1  UNL1        0.0000
     10 C          -5.5050    1.2975   -0.0071 C.ar    1  UNL1        0.0000
     11 C          -6.6896    0.7031   -0.3736 C.ar    1  UNL1        0.0000
     12 N          -6.4005   -0.5944   -0.7519 N.ar    1  UNL1        0.0000
     13 C          -5.0446   -0.8362   -0.6385 C.ar    1  UNL1        0.0000
     14 C          -4.5075    0.3120   -0.1366 C.ar    1  UNL1        0.0000
     15 C          -3.1641    0.6985    0.1753 C.ar    1  UNL1        0.0000
     16 C           0.4819    0.8376    0.3031 C.ar    1  UNL1        0.0000
     17 C           1.3799    1.9058    0.4029 C.ar    1  UNL1        0.0000
     18 C           2.7547    1.6868    0.2750 C.ar    1  UNL1        0.0000
     19 C           3.2658    0.4025    0.0408 C.ar    1  UNL1        0.0000
     20 C           2.3579   -0.6667   -0.0580 C.ar    1  UNL1        0.0000
     21 C           0.9724   -0.4722    0.0744 C.ar    1  UNL1        0.0000
     22 C          -0.0154   -1.5899    0.0125 C.ar    1  UNL1        0.0000
     23 C           0.3143   -2.8996   -0.0427 C.2     1  UNL1        0.0000
     24 C           4.7141    0.1789   -0.0956 C.ar    1  UNL1        0.0000
     25 C           5.4679    0.8812   -1.0505 C.ar    1  UNL1        0.0000
     26 C           6.8431    0.6688   -1.1804 C.ar    1  UNL1        0.0000
     27 C           7.4877   -0.2496   -0.3556 C.ar    1  UNL1        0.0000
     28 C           6.7589   -0.9559    0.5979 C.ar    1  UNL1        0.0000
     29 C           5.3836   -0.7434    0.7258 C.ar    1  UNL1        0.0000
     30 H          -1.1780   -4.8127    1.3320 H       1  UNL1        0.0000
     31 H          -1.4702   -4.7364   -1.1529 H       1  UNL1        0.0000
     32 H          -3.2699   -2.5289    0.4878 H       1  UNL1        0.0000
     33 H          -1.1868    3.0954    0.7936 H       1  UNL1        0.0000
     34 H          -3.8179    4.0270    0.8593 H       1  UNL1        0.0000
     35 H          -6.2041    3.3281    0.4376 H       1  UNL1        0.0000
     36 H          -7.7030    1.0763   -0.4285 H       1  UNL1        0.0000
     37 H          -7.0783   -1.2590   -1.1006 H       1  UNL1        0.0000
     38 H          -4.6339   -1.7779   -0.9641 H       1  UNL1        0.0000
     39 H           1.0359    2.9205    0.5730 H       1  UNL1        0.0000
     40 H           3.4326    2.5336    0.3660 H       1  UNL1        0.0000
     41 H           2.7509   -1.6610   -0.2524 H       1  UNL1        0.0000
     42 H           1.2950   -3.3418   -0.0892 H       1  UNL1        0.0000
     43 H           4.9814    1.5946   -1.7127 H       1  UNL1        0.0000
     44 H           7.4081    1.2190   -1.9282 H       1  UNL1        0.0000
     45 H           8.5571   -0.4150   -0.4561 H       1  UNL1        0.0000
     46 H           7.2592   -1.6715    1.2452 H       1  UNL1        0.0000
     47 H           4.8342   -1.2978    1.4843 H       1  UNL1        0.0000
@<TRIPOS>BOND
     1     1     2    1
     2     2     3    2
     3     3     4   ar
     4     4     5   ar
     5     5     6   ar
     6     6     7   ar
     7     7     8   ar
     8     8     9   ar
     9     9    10   ar
    10    10    11   ar
    11    11    12   ar
    12    12    13   ar
    13    13    14   ar
    14    14    15   ar
    15     5    16   ar
    16    16    17   ar
    17    17    18   ar
    18    18    19   ar
    19    19    20   ar
    20    20    21   ar
    21    21    22   ar
    22    22    23    2
    23    19    24    1
    24    24    25   ar
    25    25    26   ar
    26    26    27   ar
    27    27    28   ar
    28    28    29   ar
    29    23     1    1
    30    29    24   ar
    31    22     3   ar
    32    15     4   ar
    33    21    16   ar
    34    15     7   ar
    35    14    10   ar
    36     1    30    1
    37     1    31    1
    38     2    32    1
    39     6    33    1
    40     8    34    1
    41     9    35    1
    42    11    36    1
    43    12    37    1
    44    13    38    1
    45    17    39    1
    46    18    40    1
    47    20    41    1
    48    23    42    1
    49    25    43    1
    50    26    44    1
    51    27    45    1
    52    28    46    1
    53    29    47    1
