@<TRIPOS>MOLECULE
*****
 45 52 0 0 0
SMALL
GASTEIGER

@<TRIPOS>ATOM
      1 C          -5.4586   -1.0591    0.3111 C.3     1  UNL1       -0.0079
      2 C          -6.6384   -0.1327    0.1361 C.2     1  UNL1       -0.0791
      3 C          -6.2666    1.1272   -0.1371 C.2     1  UNL1       -0.0565
      4 C          -4.8177    1.1485   -0.1675 C.ar    1  UNL1       -0.0031
      5 C          -3.9374    2.1704   -0.3995 C.ar    1  UNL1        0.0357
      6 N          -2.5918    1.9951   -0.3865 N.ar    1  UNL1       -0.2537
      7 C          -2.0416    0.7758   -0.1383 C.ar    1  UNL1        0.0803
      8 C          -2.9225   -0.3296    0.1114 C.ar    1  UNL1        0.0158
      9 C          -4.3133   -0.1198    0.0918 C.ar    1  UNL1       -0.0252
     10 C          -2.2232   -1.5360    0.3542 C.ar    1  UNL1        0.0299
     11 C          -2.7363   -2.7795    0.6265 C.ar    1  UNL1        0.1000
     12 O          -1.7219   -3.6770    0.7983 O.2     1  UNL1       -0.4698
     13 C          -0.5490   -3.0001    0.6340 C.ar    1  UNL1        0.1000
     14 C          -0.8061   -1.6797    0.3592 C.ar    1  UNL1        0.0283
     15 C           0.1283   -0.6540    0.1254 C.ar    1  UNL1       -0.0038
     16 C           1.5741   -0.8451    0.1399 C.ar    1  UNL1       -0.0434
     17 C           2.5500    0.1620   -0.0907 C.ar    1  UNL1        0.0122
     18 C           4.0085   -0.0393   -0.0742 C.ar    1  UNL1        0.0997
     19 N           4.8419    1.0370   -0.3171 N.ar    1  UNL1       -0.2527
     20 C           6.2069    0.9460   -0.3223 C.ar    1  UNL1        0.0304
     21 C           6.9690   -0.1868   -0.0961 C.ar    1  UNL1       -0.0153
     22 C           6.1936   -1.3288    0.1597 C.ar    1  UNL1        0.1034
     23 N           6.6974   -2.5481    0.4088 N.ar    1  UNL1       -0.1907
     24 S           5.4050   -3.5540    0.6451 S.2     1  UNL1        0.1165
     25 N           4.1520   -2.4934    0.4430 N.ar    1  UNL1       -0.1886
     26 C           4.6790   -1.2819    0.1769 C.ar    1  UNL1        0.1257
     27 C           1.8689    1.3740   -0.3350 C.ar    1  UNL1        0.0093
     28 C           2.4335    2.6018   -0.6049 C.ar    1  UNL1        0.0101
     29 N           1.4249    3.5157   -0.7803 N.ar    1  UNL1       -0.3659
     30 C           0.2088    2.9031   -0.6288 C.ar    1  UNL1        0.0101
     31 C           0.4299    1.5727   -0.3513 C.ar    1  UNL1        0.0098
     32 C          -0.5793    0.5914   -0.1255 C.ar    1  UNL1        0.0179
     33 H          -5.4807   -1.8505   -0.4434 H       1  UNL1        0.0356
     34 H          -5.4491   -1.4769    1.3218 H       1  UNL1        0.0356
     35 H          -7.6639   -0.4634    0.2245 H       1  UNL1        0.0575
     36 H          -6.9041    1.9798   -0.3062 H       1  UNL1        0.0621
     37 H          -4.2719    3.1808   -0.6074 H       1  UNL1        0.0836
     38 H          -3.7263   -3.1971    0.7326 H       1  UNL1        0.1036
     39 H           0.3447   -3.5982    0.7446 H       1  UNL1        0.1036
     40 H           1.9113   -1.8569    0.3480 H       1  UNL1        0.0631
     41 H           6.7040    1.8930   -0.5318 H       1  UNL1        0.0830
     42 H           8.0488   -0.1939   -0.1140 H       1  UNL1        0.0655
     43 H           3.4588    2.9301   -0.6927 H       1  UNL1        0.0813
     44 H           1.5588    4.4960   -0.9901 H       1  UNL1        0.1648
     45 H          -0.6984    3.4812   -0.7349 H       1  UNL1        0.0813
@<TRIPOS>BOND
     1     1     2    1
     2     2     3    2
     3     3     4    1
     4     4     5   ar
     5     5     6   ar
     6     6     7   ar
     7     7     8   ar
     8     8     9   ar
     9     8    10   ar
    10    10    11   ar
    11    11    12   ar
    12    12    13   ar
    13    13    14   ar
    14    14    15   ar
    15    15    16   ar
    16    16    17   ar
    17    17    18    1
    18    18    19   ar
    19    19    20   ar
    20    20    21   ar
    21    21    22   ar
    22    22    23   ar
    23    23    24   ar
    24    24    25   ar
    25    25    26   ar
    26    17    27   ar
    27    27    28   ar
    28    28    29   ar
    29    29    30   ar
    30    30    31   ar
    31    31    32   ar
    32     9     1    1
    33    14    10   ar
    34    32    15   ar
    35     9     4   ar
    36    26    18   ar
    37    31    27   ar
    38    32     7   ar
    39    26    22   ar
    40     1    33    1
    41     1    34    1
    42     2    35    1
    43     3    36    1
    44     5    37    1
    45    11    38    1
    46    13    39    1
    47    16    40    1
    48    20    41    1
    49    21    42    1
    50    28    43    1
    51    29    44    1
    52    30    45    1
