@<TRIPOS>MOLECULE
*****
 46 53 0 0 0
SMALL
GASTEIGER

@<TRIPOS>ATOM
      1 C          -5.6686   -0.5848    0.4867 C.3     1  UNL1       -0.0079
      2 C          -6.7037    0.5141    0.5307 C.2     1  UNL1       -0.0791
      3 C          -6.1677    1.7325    0.3625 C.2     1  UNL1       -0.0565
      4 C          -4.7395    1.5518    0.1932 C.ar    1  UNL1       -0.0031
      5 C          -3.7358    2.4601   -0.0097 C.ar    1  UNL1        0.0357
      6 N          -2.4357    2.0965   -0.1474 N.ar    1  UNL1       -0.2537
      7 C          -2.0615    0.7900   -0.0912 C.ar    1  UNL1        0.0803
      8 C          -3.0755   -0.2035    0.1213 C.ar    1  UNL1        0.0158
      9 C          -4.4148    0.2024    0.2611 C.ar    1  UNL1       -0.0252
     10 C          -2.5508   -1.5184    0.1617 C.ar    1  UNL1        0.0299
     11 C          -3.2245   -2.7001    0.3458 C.ar    1  UNL1        0.1000
     12 O          -2.3489   -3.7473    0.3195 O.2     1  UNL1       -0.4698
     13 C          -1.1030   -3.2304    0.1158 C.ar    1  UNL1        0.1000
     14 C          -1.1763   -1.8635    0.0134 C.ar    1  UNL1        0.0283
     15 C          -0.1180   -0.9624   -0.1970 C.ar    1  UNL1       -0.0039
     16 C           1.2735   -1.3592   -0.3402 C.ar    1  UNL1       -0.0443
     17 C           2.3199   -0.4427   -0.5455 C.ar    1  UNL1        0.0004
     18 C           3.7091   -0.8093   -0.6629 C.ar    1  UNL1        0.0438
     19 S           4.3133   -1.8191   -1.9339 S.2     1  UNL1       -0.0939
     20 C           5.9527   -1.7583   -1.3494 C.ar    1  UNL1       -0.0145
     21 C           5.9583   -1.0028   -0.2323 C.ar    1  UNL1        0.0073
     22 C           6.8316   -0.5148    0.7706 C.ar    1  UNL1       -0.0361
     23 C           6.0494    0.2490    1.6645 C.ar    1  UNL1        0.0028
     24 N           4.7093    0.2746    1.2826 N.ar    1  UNL1       -0.3598
     25 C           4.7401   -0.4860    0.1482 C.ar    1  UNL1        0.0614
     26 C           1.8412    0.8690   -0.6044 C.ar    1  UNL1        0.0083
     27 C           2.5884    2.0016   -0.8333 C.ar    1  UNL1        0.0100
     28 N           1.7261    3.0711   -0.8240 N.ar    1  UNL1       -0.3659
     29 C           0.4410    2.6379   -0.5963 C.ar    1  UNL1        0.0101
     30 C           0.4636    1.2679   -0.4642 C.ar    1  UNL1        0.0098
     31 C          -0.6515    0.4025   -0.2423 C.ar    1  UNL1        0.0179
     32 H          -5.6417   -1.1209    1.4395 H       1  UNL1        0.0356
     33 H          -5.8716   -1.2660   -0.3445 H       1  UNL1        0.0356
     34 H          -7.7572    0.3237    0.6816 H       1  UNL1        0.0575
     35 H          -6.6798    2.6809    0.3510 H       1  UNL1        0.0621
     36 H          -3.9293    3.5255   -0.0714 H       1  UNL1        0.0836
     37 H          -4.2550   -2.9821    0.5014 H       1  UNL1        0.1036
     38 H          -0.3062   -3.9594    0.0718 H       1  UNL1        0.1036
     39 H           1.5280   -2.4166   -0.2778 H       1  UNL1        0.0630
     40 H           6.7541   -2.2743   -1.8572 H       1  UNL1        0.0700
     41 H           7.8965   -0.6832    0.8594 H       1  UNL1        0.0639
     42 H           6.3480    0.7829    2.5576 H       1  UNL1        0.0807
     43 H           3.9039    0.7276    1.6997 H       1  UNL1        0.1654
     44 H           3.6443    2.1525   -1.0163 H       1  UNL1        0.0813
     45 H           1.9920    4.0356   -0.9760 H       1  UNL1        0.1648
     46 H          -0.3674    3.3554   -0.5643 H       1  UNL1        0.0813
@<TRIPOS>BOND
     1     1     2    1
     2     2     3    2
     3     3     4    1
     4     4     5   ar
     5     5     6   ar
     6     6     7   ar
     7     7     8   ar
     8     8     9   ar
     9     8    10   ar
    10    10    11   ar
    11    11    12   ar
    12    12    13   ar
    13    13    14   ar
    14    14    15   ar
    15    15    16   ar
    16    16    17   ar
    17    17    18    1
    18    18    19   ar
    19    19    20   ar
    20    20    21   ar
    21    21    22   ar
    22    22    23   ar
    23    23    24   ar
    24    24    25   ar
    25    17    26   ar
    26    26    27   ar
    27    27    28   ar
    28    28    29   ar
    29    29    30   ar
    30    30    31   ar
    31     9     1    1
    32    14    10   ar
    33    31    15   ar
    34     9     4   ar
    35    25    18   ar
    36    30    26   ar
    37    31     7   ar
    38    25    21   ar
    39     1    32    1
    40     1    33    1
    41     2    34    1
    42     3    35    1
    43     5    36    1
    44    11    37    1
    45    13    38    1
    46    16    39    1
    47    20    40    1
    48    22    41    1
    49    23    42    1
    50    24    43    1
    51    27    44    1
    52    28    45    1
    53    29    46    1
