@<TRIPOS>MOLECULE
*****
 43 49 0 0 0
SMALL
GASTEIGER

@<TRIPOS>ATOM
      1 C           5.1669   -1.3591    0.0442 C.3     1  UNL1        0.0000
      2 C           6.3578   -0.4907   -0.2797 C.2     1  UNL1        0.0000
      3 C           6.0105    0.7776   -0.5393 C.2     1  UNL1        0.0000
      4 C           4.5697    0.8583   -0.4107 C.ar    1  UNL1        0.0000
      5 C           3.7219    1.9159   -0.5702 C.ar    1  UNL1        0.0000
      6 N           2.3827    1.8012   -0.4066 N.ar    1  UNL1        0.0000
      7 C           1.8020    0.6207   -0.0718 C.ar    1  UNL1        0.0000
      8 C           2.6400   -0.5322    0.1101 C.ar    1  UNL1        0.0000
      9 C           4.0353   -0.3800   -0.0679 C.ar    1  UNL1        0.0000
     10 C           1.9107   -1.7104    0.4582 C.ar    1  UNL1        0.0000
     11 C           2.4843   -2.9417    0.6863 C.ar    1  UNL1        0.0000
     12 S           1.3310   -4.1449    1.0822 S.2     1  UNL1        0.0000
     13 C           0.0416   -3.0280    0.9529 C.ar    1  UNL1        0.0000
     14 C           0.4739   -1.7627    0.6154 C.ar    1  UNL1        0.0000
     15 C          -0.3980   -0.6563    0.4460 C.ar    1  UNL1        0.0000
     16 C          -1.8382   -0.7434    0.6075 C.ar    1  UNL1        0.0000
     17 C          -2.7156    0.3380    0.4341 C.ar    1  UNL1        0.0000
     18 C          -4.1503    0.2296    0.5956 C.2     1  UNL1        0.0000
     19 C          -4.8293    0.2210    1.7605 C.2     1  UNL1        0.0000
     20 C          -6.2686    0.0520    1.6331 C.2     1  UNL1        0.0000
     21 C          -6.7208   -0.0915    0.3738 C.2     1  UNL1        0.0000
     22 SI         -5.3110   -0.0202   -0.8754 Si      1  UNL1        0.0000
     23 C          -2.0411    1.5219    0.1133 C.ar    1  UNL1        0.0000
     24 C          -2.6903    2.7249   -0.0594 C.ar    1  UNL1        0.0000
     25 S          -1.6067    3.9868   -0.4490 S.2     1  UNL1        0.0000
     26 C          -0.2561    2.9334   -0.3683 C.ar    1  UNL1        0.0000
     27 C          -0.5953    1.6339   -0.0531 C.ar    1  UNL1        0.0000
     28 C           0.3479    0.5492    0.0936 C.ar    1  UNL1        0.0000
     29 H           5.2578   -1.7551    1.0596 H       1  UNL1        0.0000
     30 H           5.0786   -2.1628   -0.6923 H       1  UNL1        0.0000
     31 H           7.3722   -0.8644   -0.2965 H       1  UNL1        0.0000
     32 H           6.6596    1.5988   -0.7967 H       1  UNL1        0.0000
     33 H           4.0772    2.9052   -0.8370 H       1  UNL1        0.0000
     34 H           3.5168   -3.2466    0.6529 H       1  UNL1        0.0000
     35 H          -0.9593   -3.3890    1.1383 H       1  UNL1        0.0000
     36 H          -2.2874   -1.6983    0.8756 H       1  UNL1        0.0000
     37 H          -4.3682    0.3266    2.7354 H       1  UNL1        0.0000
     38 H          -6.9070    0.0439    2.5082 H       1  UNL1        0.0000
     39 H          -7.7438   -0.2287    0.0612 H       1  UNL1        0.0000
     40 H          -5.4098    1.1788   -1.7444 H       1  UNL1        0.0000
     41 H          -5.1093   -1.3248   -1.5543 H       1  UNL1        0.0000
     42 H          -3.7452    2.9474    0.0223 H       1  UNL1        0.0000
     43 H           0.7134    3.3659   -0.5597 H       1  UNL1        0.0000
@<TRIPOS>BOND
     1     1     2    1
     2     2     3    2
     3     3     4    1
     4     4     5   ar
     5     5     6   ar
     6     6     7   ar
     7     7     8   ar
     8     8     9   ar
     9     8    10   ar
    10    10    11   ar
    11    11    12   ar
    12    12    13   ar
    13    13    14   ar
    14    14    15   ar
    15    15    16   ar
    16    16    17   ar
    17    17    18    1
    18    18    19    2
    19    19    20    1
    20    20    21    2
    21    21    22    1
    22    17    23   ar
    23    23    24   ar
    24    24    25   ar
    25    25    26   ar
    26    26    27   ar
    27    27    28   ar
    28     9     1    1
    29    14    10   ar
    30    28    15   ar
    31     9     4   ar
    32    22    18    1
    33    27    23   ar
    34    28     7   ar
    35     1    29    1
    36     1    30    1
    37     2    31    1
    38     3    32    1
    39     5    33    1
    40    11    34    1
    41    13    35    1
    42    16    36    1
    43    19    37    1
    44    20    38    1
    45    21    39    1
    46    22    40    1
    47    22    41    1
    48    24    42    1
    49    26    43    1
