@<TRIPOS>MOLECULE
*****
 50 57 0 0 0
SMALL
GASTEIGER

@<TRIPOS>ATOM
      1 C           5.7479   -1.3110    1.2977 C.3     1  UNL1        0.0000
      2 C           6.9364   -0.3826    1.3511 C.2     1  UNL1        0.0000
      3 C           6.6188    0.8740    1.0096 C.2     1  UNL1        0.0000
      4 C           5.2029    0.8855    0.7030 C.ar    1  UNL1        0.0000
      5 C           4.3895    1.9063    0.3065 C.ar    1  UNL1        0.0000
      6 N           3.0702    1.7277    0.0619 N.ar    1  UNL1        0.0000
      7 C           2.4669    0.5169    0.1947 C.ar    1  UNL1        0.0000
      8 C           3.2772   -0.6015    0.6126 C.ar    1  UNL1        0.0000
      9 C           4.6530   -0.3825    0.8606 C.ar    1  UNL1        0.0000
     10 C           2.5489   -1.8266    0.7235 C.ar    1  UNL1        0.0000
     11 C           3.0914   -3.0338    1.1036 C.ar    1  UNL1        0.0000
     12 S           1.9336   -4.2970    1.1325 S.2     1  UNL1        0.0000
     13 C           0.6853   -3.2377    0.6338 C.ar    1  UNL1        0.0000
     14 C           1.1365   -1.9486    0.4473 C.ar    1  UNL1        0.0000
     15 C           0.3298   -0.8733    0.0390 C.ar    1  UNL1        0.0000
     16 C          -1.1078   -1.0368   -0.2318 C.ar    1  UNL1        0.0000
     17 C          -1.8884   -0.0083   -0.6125 C.ar    1  UNL1        0.0000
     18 C          -3.2984   -0.3095   -0.8583 C.ar    1  UNL1        0.0000
     19 C          -3.8290   -0.8077   -2.0739 C.ar    1  UNL1        0.0000
     20 C          -5.2257   -1.0886   -2.2842 C.ar    1  UNL1        0.0000
     21 C          -6.2327   -0.9005   -1.3075 C.ar    1  UNL1        0.0000
     22 C          -5.6862   -0.4089   -0.1287 C.ar    1  UNL1        0.0000
     23 C          -6.3753   -0.1098    1.0177 C.ar    1  UNL1        0.0000
     24 N          -5.4495    0.3491    1.9325 N.ar    1  UNL1        0.0000
     25 C          -4.1853    0.3421    1.3804 C.ar    1  UNL1        0.0000
     26 C          -4.3053   -0.1260    0.0945 C.ar    1  UNL1        0.0000
     27 C          -1.2817    1.3043   -0.7793 C.ar    1  UNL1        0.0000
     28 C          -1.9655    2.4008   -1.1701 C.2     1  UNL1        0.0000
     29 SI         -0.8755    3.8944   -1.2721 Si      1  UNL1        0.0000
     30 C           0.5379    2.8119   -0.7323 C.2     1  UNL1        0.0000
     31 C           0.1708    1.5279   -0.5220 C.ar    1  UNL1        0.0000
     32 C           1.0467    0.3735   -0.0801 C.ar    1  UNL1        0.0000
     33 H           5.9238   -2.1010    0.5622 H       1  UNL1        0.0000
     34 H           5.5525   -1.7249    2.2910 H       1  UNL1        0.0000
     35 H           7.9271   -0.7094    1.6348 H       1  UNL1        0.0000
     36 H           7.2727    1.7296    0.9638 H       1  UNL1        0.0000
     37 H           4.7575    2.9165    0.1660 H       1  UNL1        0.0000
     38 H           4.1013   -3.2904    1.3758 H       1  UNL1        0.0000
     39 H          -0.3065   -3.6478    0.5122 H       1  UNL1        0.0000
     40 H          -1.5522   -2.0180   -0.1119 H       1  UNL1        0.0000
     41 H          -3.1444   -0.9863   -2.9037 H       1  UNL1        0.0000
     42 H          -5.5234   -1.4689   -3.2620 H       1  UNL1        0.0000
     43 H          -7.2778   -1.1139   -1.4781 H       1  UNL1        0.0000
     44 H          -7.4231   -0.1734    1.2772 H       1  UNL1        0.0000
     45 H          -5.6656    0.6496    2.8739 H       1  UNL1        0.0000
     46 H          -3.3303    0.6735    1.9546 H       1  UNL1        0.0000
     47 H          -3.0170    2.4626   -1.4038 H       1  UNL1        0.0000
     48 H          -0.7187    4.3945   -2.6601 H       1  UNL1        0.0000
     49 H          -1.2246    4.9269   -0.2654 H       1  UNL1        0.0000
     50 H           1.5115    3.2571   -0.6278 H       1  UNL1        0.0000
@<TRIPOS>BOND
     1     1     2    1
     2     2     3    2
     3     3     4    1
     4     4     5   ar
     5     5     6   ar
     6     6     7   ar
     7     7     8   ar
     8     8     9   ar
     9     8    10   ar
    10    10    11   ar
    11    11    12   ar
    12    12    13   ar
    13    13    14   ar
    14    14    15   ar
    15    15    16   ar
    16    16    17   ar
    17    17    18    1
    18    18    19   ar
    19    19    20   ar
    20    20    21   ar
    21    21    22   ar
    22    22    23   ar
    23    23    24   ar
    24    24    25   ar
    25    25    26   ar
    26    17    27   ar
    27    27    28    2
    28    28    29    1
    29    29    30    1
    30    30    31    2
    31    31    32   ar
    32     9     1    1
    33    14    10   ar
    34    32    15   ar
    35     9     4   ar
    36    26    18   ar
    37    31    27   ar
    38    32     7   ar
    39    26    22   ar
    40     1    33    1
    41     1    34    1
    42     2    35    1
    43     3    36    1
    44     5    37    1
    45    11    38    1
    46    13    39    1
    47    16    40    1
    48    19    41    1
    49    20    42    1
    50    21    43    1
    51    23    44    1
    52    24    45    1
    53    25    46    1
    54    28    47    1
    55    29    48    1
    56    29    49    1
    57    30    50    1
