@<TRIPOS>MOLECULE
*****
 43 49 0 0 0
SMALL
GASTEIGER

@<TRIPOS>ATOM
      1 C          -5.6928   -0.5629    1.3359 C.3     1  UNL1        0.0000
      2 C          -6.9105   -0.0691    0.5917 C.2     1  UNL1        0.0000
      3 C          -6.6017    0.4917   -0.5878 C.2     1  UNL1        0.0000
      4 C          -5.1611    0.4220   -0.7333 C.ar    1  UNL1        0.0000
      5 C          -4.3337    0.8432   -1.7365 C.ar    1  UNL1        0.0000
      6 N          -2.9905    0.6809   -1.6777 N.ar    1  UNL1        0.0000
      7 C          -2.4144    0.0808   -0.5966 C.ar    1  UNL1        0.0000
      8 C          -3.2155   -0.3781    0.4781 C.ar    1  UNL1        0.0000
      9 C          -2.6379   -0.9959    1.5973 C.ar    1  UNL1        0.0000
     10 C          -1.2598   -1.1748    1.6830 C.ar    1  UNL1        0.0000
     11 C          -0.4119   -0.7482    0.6628 C.ar    1  UNL1        0.0000
     12 C           0.9962   -0.9664    0.8259 C.ar    1  UNL1        0.0000
     13 C           1.9830   -0.5948   -0.1105 C.ar    1  UNL1        0.0000
     14 C           3.4038   -0.8073    0.0964 C.ar    1  UNL1        0.0000
     15 S           4.0339   -2.4209    0.0434 S.2     1  UNL1        0.0000
     16 C           5.6539   -1.9038    0.3418 C.ar    1  UNL1        0.0000
     17 C           5.6777   -0.5505    0.4795 C.ar    1  UNL1        0.0000
     18 SI          6.9878    0.7591    0.8147 Si      1  UNL1        0.0000
     19 C           5.6037    2.0776    0.7374 C.2     1  UNL1        0.0000
     20 C           4.3991    1.5154    0.4941 C.2     1  UNL1        0.0000
     21 C           4.4156    0.0887    0.3476 C.ar    1  UNL1        0.0000
     22 C           1.4392    0.0210   -1.2442 C.ar    1  UNL1        0.0000
     23 C           2.1934    0.4543   -2.3118 C.ar    1  UNL1        0.0000
     24 S           1.2234    1.1634   -3.5310 S.2     1  UNL1        0.0000
     25 C          -0.2164    0.8765   -2.6428 C.ar    1  UNL1        0.0000
     26 C           0.0184    0.2556   -1.4355 C.ar    1  UNL1        0.0000
     27 C          -1.0013   -0.1134   -0.4901 C.ar    1  UNL1        0.0000
     28 C          -4.5958   -0.1923    0.3805 C.ar    1  UNL1        0.0000
     29 H          -5.7442   -1.6451    1.4863 H       1  UNL1        0.0000
     30 H          -5.5854   -0.0406    2.2910 H       1  UNL1        0.0000
     31 H          -7.9150   -0.1645    0.9798 H       1  UNL1        0.0000
     32 H          -7.2780    0.9203   -1.3095 H       1  UNL1        0.0000
     33 H          -4.7092    1.3284   -2.6303 H       1  UNL1        0.0000
     34 H          -3.2565   -1.3472    2.4201 H       1  UNL1        0.0000
     35 H          -0.8581   -1.6599    2.5716 H       1  UNL1        0.0000
     36 H           1.3426   -1.4502    1.7422 H       1  UNL1        0.0000
     37 H           6.4606   -2.6221    0.3958 H       1  UNL1        0.0000
     38 H           7.5793    0.6878    2.1740 H       1  UNL1        0.0000
     39 H           7.9584    0.9408   -0.2931 H       1  UNL1        0.0000
     40 H           5.8251    3.1230    0.8798 H       1  UNL1        0.0000
     41 H           3.4831    2.0904    0.4131 H       1  UNL1        0.0000
     42 H           3.2638    0.3988   -2.4560 H       1  UNL1        0.0000
     43 H          -1.1523    1.1883   -3.0821 H       1  UNL1        0.0000
@<TRIPOS>BOND
     1     1     2    1
     2     2     3    2
     3     3     4    1
     4     4     5   ar
     5     5     6   ar
     6     6     7   ar
     7     7     8   ar
     8     8     9   ar
     9     9    10   ar
    10    10    11   ar
    11    11    12   ar
    12    12    13   ar
    13    13    14    1
    14    14    15   ar
    15    15    16   ar
    16    16    17   ar
    17    17    18    1
    18    18    19    1
    19    19    20    2
    20    20    21    1
    21    13    22   ar
    22    22    23   ar
    23    23    24   ar
    24    24    25   ar
    25    25    26   ar
    26    26    27   ar
    27     8    28   ar
    28    28     1    1
    29    28     4   ar
    30    27     7   ar
    31    27    11   ar
    32    21    14   ar
    33    26    22   ar
    34    21    17   ar
    35     1    29    1
    36     1    30    1
    37     2    31    1
    38     3    32    1
    39     5    33    1
    40     9    34    1
    41    10    35    1
    42    12    36    1
    43    16    37    1
    44    18    38    1
    45    18    39    1
    46    19    40    1
    47    20    41    1
    48    23    42    1
    49    25    43    1
