@<TRIPOS>MOLECULE
*****
 35 39 0 0 0
SMALL
GASTEIGER

@<TRIPOS>ATOM
      1 C          -5.0167    0.9060   -0.2375 C.3     1  UNL1       -0.0079
      2 C          -6.1452    0.0356    0.2629 C.2     1  UNL1       -0.0791
      3 C          -5.7108   -1.1006    0.8306 C.2     1  UNL1       -0.0565
      4 C          -4.2632   -1.0944    0.7536 C.ar    1  UNL1       -0.0031
      5 C          -3.3289   -2.0031    1.1776 C.ar    1  UNL1        0.0357
      6 N          -1.9977   -1.8067    1.0057 N.ar    1  UNL1       -0.2536
      7 C          -1.5602   -0.6699    0.3914 C.ar    1  UNL1        0.0833
      8 C          -2.4646    0.3063   -0.0653 C.ar    1  UNL1        0.0232
      9 C          -1.9530    1.4456   -0.6804 C.ar    1  UNL1        0.0377
     10 N          -0.6381    1.6738   -0.8724 N.ar    1  UNL1       -0.2541
     11 C           0.2299    0.7452   -0.4431 C.ar    1  UNL1        0.0766
     12 C           1.5847    0.9553   -0.6321 C.ar    1  UNL1       -0.0081
     13 C           2.5191    0.0183   -0.1959 C.ar    1  UNL1        0.0912
     14 N           2.1270   -1.1245    0.4248 N.ar    1  UNL1       -0.2527
     15 C           0.7996   -1.3193    0.6016 C.ar    1  UNL1        0.0395
     16 C          -0.1921   -0.4313    0.1923 C.ar    1  UNL1        0.0444
     17 C           3.9777    0.2112   -0.3854 C.ar    1  UNL1        0.0892
     18 C           4.9161   -0.7240    0.0585 C.ar    1  UNL1       -0.0342
     19 C           6.2746   -0.4885   -0.1458 C.ar    1  UNL1       -0.0583
     20 C           6.6723    0.6752   -0.7892 C.ar    1  UNL1       -0.0436
     21 C           5.6908    1.5572   -1.2029 C.ar    1  UNL1        0.0283
     22 N           4.3674    1.3533   -1.0181 N.ar    1  UNL1       -0.2534
     23 C          -3.8270    0.0708    0.1286 C.ar    1  UNL1       -0.0244
     24 H          -5.0062    1.8658    0.2879 H       1  UNL1        0.0356
     25 H          -5.0881    1.0539   -1.3192 H       1  UNL1        0.0356
     26 H          -7.1864    0.3144    0.1695 H       1  UNL1        0.0575
     27 H          -6.3058   -1.8861    1.2668 H       1  UNL1        0.0621
     28 H          -3.6062   -2.9268    1.6740 H       1  UNL1        0.0836
     29 H          -2.6019    2.2344   -1.0511 H       1  UNL1        0.0836
     30 H           1.9124    1.8653   -1.1271 H       1  UNL1        0.0661
     31 H           0.5447   -2.2502    1.1043 H       1  UNL1        0.0837
     32 H           4.5945   -1.6294    0.5652 H       1  UNL1        0.0639
     33 H           7.0125   -1.2075    0.2004 H       1  UNL1        0.0619
     34 H           7.7205    0.8905   -0.9620 H       1  UNL1        0.0633
     35 H           5.9482    2.4843   -1.7082 H       1  UNL1        0.0830
@<TRIPOS>BOND
     1     1     2    1
     2     2     3    2
     3     3     4    1
     4     4     5   ar
     5     5     6   ar
     6     6     7   ar
     7     7     8   ar
     8     8     9   ar
     9     9    10   ar
    10    10    11   ar
    11    11    12   ar
    12    12    13   ar
    13    13    14   ar
    14    14    15   ar
    15    15    16   ar
    16    13    17    1
    17    17    18   ar
    18    18    19   ar
    19    19    20   ar
    20    20    21   ar
    21    21    22   ar
    22     8    23   ar
    23    23     1    1
    24    23     4   ar
    25    16     7   ar
    26    22    17   ar
    27    16    11   ar
    28     1    24    1
    29     1    25    1
    30     2    26    1
    31     3    27    1
    32     5    28    1
    33     9    29    1
    34    12    30    1
    35    15    31    1
    36    18    32    1
    37    19    33    1
    38    20    34    1
    39    21    35    1
