@<TRIPOS>MOLECULE
*****
 39 44 0 0 0
SMALL
GASTEIGER

@<TRIPOS>ATOM
      1 C          -4.4935    0.2141    0.1757 C.3     1  UNL1       -0.0079
      2 C          -5.5011    1.2590   -0.2283 C.2     1  UNL1       -0.0791
      3 C          -4.9236    2.3413   -0.7626 C.2     1  UNL1       -0.0565
      4 C          -3.4947    2.1042   -0.7567 C.ar    1  UNL1       -0.0031
      5 C          -2.4861    2.9051   -1.1936 C.ar    1  UNL1        0.0357
      6 N          -1.2044    2.5170   -1.1083 N.ar    1  UNL1       -0.2522
      7 C          -0.8660    1.3052   -0.5802 C.ar    1  UNL1        0.0977
      8 C           0.4951    0.9966   -0.5366 C.ar    1  UNL1        0.0974
      9 N           1.3886    1.9030   -1.0132 N.ar    1  UNL1       -0.2521
     10 C           2.7152    1.6492   -0.9918 C.ar    1  UNL1        0.0380
     11 C           3.2657    0.4881   -0.5018 C.ar    1  UNL1        0.0258
     12 C           2.3448   -0.4451   -0.0111 C.ar    1  UNL1       -0.0408
     13 C           0.9351   -0.2325   -0.0079 C.ar    1  UNL1        0.0108
     14 C          -0.0097   -1.1832    0.4925 C.ar    1  UNL1       -0.0080
     15 C           0.3973   -2.4357    1.0341 C.ar    1  UNL1       -0.0534
     16 C          -0.4990   -3.3786    1.5274 C.ar    1  UNL1       -0.0611
     17 C          -1.8444   -3.0977    1.4951 C.ar    1  UNL1       -0.0611
     18 C          -2.2756   -1.8783    0.9704 C.ar    1  UNL1       -0.0534
     19 C          -1.3981   -0.8832    0.4546 C.ar    1  UNL1       -0.0077
     20 C          -1.8386    0.3863   -0.0923 C.ar    1  UNL1        0.0142
     21 C          -3.1823    0.8519   -0.2085 C.ar    1  UNL1       -0.0252
     22 C           4.7071    0.1936   -0.4700 C.ar    1  UNL1        0.1097
     23 N           5.2153   -0.9300    0.0065 N.ar    1  UNL1       -0.2473
     24 C           6.5917   -0.9214   -0.0952 C.ar    1  UNL1        0.0354
     25 C           7.1368    0.2123   -0.6512 C.ar    1  UNL1       -0.0042
     26 S           5.8886    1.3067   -1.0619 S.2     1  UNL1       -0.0756
     27 H          -4.5578    0.0470    1.2549 H       1  UNL1        0.0356
     28 H          -4.6754   -0.7031   -0.3919 H       1  UNL1        0.0356
     29 H          -6.5667    1.1345   -0.0954 H       1  UNL1        0.0575
     30 H          -5.4058    3.2311   -1.1336 H       1  UNL1        0.0621
     31 H          -2.6579    3.8831   -1.6269 H       1  UNL1        0.0836
     32 H           3.3125    2.4573   -1.4025 H       1  UNL1        0.0836
     33 H           2.7613   -1.3699    0.3807 H       1  UNL1        0.0631
     34 H           1.4460   -2.7157    1.0870 H       1  UNL1        0.0624
     35 H          -0.1389   -4.3208    1.9309 H       1  UNL1        0.0618
     36 H          -2.5661   -3.8165    1.8739 H       1  UNL1        0.0618
     37 H          -3.3468   -1.7391    0.9831 H       1  UNL1        0.0624
     38 H           7.1545   -1.7779    0.2556 H       1  UNL1        0.0835
     39 H           8.1772    0.4420   -0.8300 H       1  UNL1        0.0709
@<TRIPOS>BOND
     1     1     2    1
     2     2     3    2
     3     3     4    1
     4     4     5   ar
     5     5     6   ar
     6     6     7   ar
     7     7     8   ar
     8     8     9   ar
     9     9    10   ar
    10    10    11   ar
    11    11    12   ar
    12    12    13   ar
    13    13    14   ar
    14    14    15   ar
    15    15    16   ar
    16    16    17   ar
    17    17    18   ar
    18    18    19   ar
    19    19    20   ar
    20    20    21   ar
    21    11    22    1
    22    22    23   ar
    23    23    24   ar
    24    24    25   ar
    25    25    26   ar
    26    21     1    1
    27    26    22   ar
    28    21     4   ar
    29    20     7   ar
    30    13     8   ar
    31    19    14   ar
    32     1    27    1
    33     1    28    1
    34     2    29    1
    35     3    30    1
    36     5    31    1
    37    10    32    1
    38    12    33    1
    39    15    34    1
    40    16    35    1
    41    17    36    1
    42    18    37    1
    43    24    38    1
    44    25    39    1
