@<TRIPOS>MOLECULE
*****
 36 40 0 0 0
SMALL
GASTEIGER

@<TRIPOS>ATOM
      1 C           4.0105    0.0897   -0.0797 C.3     1  UNL1        0.0000
      2 C           5.0506    1.1822   -0.1384 C.2     1  UNL1        0.0000
      3 C           4.5089    2.4082   -0.1744 C.2     1  UNL1        0.0000
      4 C           3.0680    2.2435   -0.1434 C.ar    1  UNL1        0.0000
      5 C           2.0709    3.1906   -0.1611 C.ar    1  UNL1        0.0000
      6 N           0.7631    2.8579   -0.1266 N.ar    1  UNL1        0.0000
      7 C           0.4568    1.5280   -0.0735 C.ar    1  UNL1        0.0000
      8 C          -0.9933    1.2571   -0.0440 C.ar    1  UNL1        0.0000
      9 C          -1.5059    0.0109    0.0117 C.ar    1  UNL1        0.0000
     10 C          -2.9730   -0.1112    0.0258 C.ar    1  UNL1        0.0000
     11 C          -3.7115    0.1318    1.1863 C.ar    1  UNL1        0.0000
     12 C          -5.0974   -0.0056    1.1617 C.ar    1  UNL1        0.0000
     13 C          -5.7000   -0.3865   -0.0269 C.ar    1  UNL1        0.0000
     14 N          -5.0219   -0.6346   -1.1681 N.ar    1  UNL1        0.0000
     15 C          -3.6756   -0.4892   -1.1154 C.ar    1  UNL1        0.0000
     16 C          -0.5823   -1.1224    0.0446 C.ar    1  UNL1        0.0000
     17 C          -0.9584   -2.4165    0.1117 C.2     1  UNL1        0.0000
     18 SI          0.5069   -3.5623    0.1346 Si      1  UNL1        0.0000
     19 C           1.6091   -2.0487    0.0488 C.2     1  UNL1        0.0000
     20 C           0.8902   -0.9069    0.0118 C.ar    1  UNL1        0.0000
     21 C           1.4073    0.4795   -0.0502 C.ar    1  UNL1        0.0000
     22 C           2.7373    0.8808   -0.0873 C.ar    1  UNL1        0.0000
     23 H           4.1219   -0.4855    0.8439 H       1  UNL1        0.0000
     24 H           4.0905   -0.5533   -0.9608 H       1  UNL1        0.0000
     25 H           6.1129    0.9816   -0.1497 H       1  UNL1        0.0000
     26 H           5.0247    3.3538   -0.2188 H       1  UNL1        0.0000
     27 H           2.2860    4.2525   -0.2042 H       1  UNL1        0.0000
     28 H          -1.6279    2.1382   -0.0766 H       1  UNL1        0.0000
     29 H          -3.2129    0.4245    2.1067 H       1  UNL1        0.0000
     30 H          -5.6925    0.1794    2.0489 H       1  UNL1        0.0000
     31 H          -6.7777   -0.5062   -0.0941 H       1  UNL1        0.0000
     32 H          -3.1592   -0.6937   -2.0498 H       1  UNL1        0.0000
     33 H          -1.9636   -2.8067    0.1518 H       1  UNL1        0.0000
     34 H           0.6539   -4.2840    1.4210 H       1  UNL1        0.0000
     35 H           0.6085   -4.3932   -1.0886 H       1  UNL1        0.0000
     36 H           2.6751   -2.1838    0.0389 H       1  UNL1        0.0000
@<TRIPOS>BOND
     1     1     2    1
     2     2     3    2
     3     3     4    1
     4     4     5   ar
     5     5     6   ar
     6     6     7   ar
     7     7     8   ar
     8     8     9   ar
     9     9    10    1
    10    10    11   ar
    11    11    12   ar
    12    12    13   ar
    13    13    14   ar
    14    14    15   ar
    15     9    16   ar
    16    16    17    2
    17    17    18    1
    18    18    19    1
    19    19    20    2
    20    20    21   ar
    21    21    22   ar
    22    22     1    1
    23    22     4   ar
    24    21     7   ar
    25    15    10   ar
    26    20    16   ar
    27     1    23    1
    28     1    24    1
    29     2    25    1
    30     3    26    1
    31     5    27    1
    32     8    28    1
    33    11    29    1
    34    12    30    1
    35    13    31    1
    36    15    32    1
    37    17    33    1
    38    18    34    1
    39    18    35    1
    40    19    36    1
