@<TRIPOS>MOLECULE
*****
 41 47 0 0 0
SMALL
GASTEIGER

@<TRIPOS>ATOM
      1 C          -4.4784    0.9758   -0.0945 C.3     1  UNL1        0.0000
      2 C          -5.9965    0.9590    0.1217 C.2     1  UNL1        0.0000
      3 C          -6.4082   -0.2220    0.6377 C.2     1  UNL1        0.0000
      4 C          -5.2862   -1.0684    0.8128 C.ar    1  UNL1        0.0000
      5 C          -5.0740   -2.3290    1.2797 C.ar    1  UNL1        0.0000
      6 S          -3.3853   -2.6926    1.1965 S.2     1  UNL1        0.0000
      7 C          -2.9871   -1.1470    0.5250 C.ar    1  UNL1        0.0000
      8 C          -4.1220   -0.3904    0.3859 C.ar    1  UNL1        0.0000
      9 C          -1.6073   -0.8273    0.2077 C.ar    1  UNL1        0.0000
     10 C          -0.6290   -0.6090    1.2084 C.ar    1  UNL1        0.0000
     11 C           0.6966   -0.2670    0.8504 C.ar    1  UNL1        0.0000
     12 N           1.8188   -0.0063    1.6393 N.ar    1  UNL1        0.0000
     13 C           2.8480    0.2764    0.8056 C.ar    1  UNL1        0.0000
     14 C           4.1865    0.6079    0.9650 C.2     1  UNL1        0.0000
     15 C           4.6801    0.7651   -0.2938 C.2     1  UNL1        0.0000
     16 C           3.6268    0.5295   -1.3853 C.3     1  UNL1        0.0000
     17 C           2.4608    0.2142   -0.5122 C.ar    1  UNL1        0.0000
     18 C           1.1254   -0.1231   -0.4724 C.ar    1  UNL1        0.0000
     19 C           0.1768   -0.3372   -1.5104 C.ar    1  UNL1        0.0000
     20 C           0.4261   -0.2451   -2.8473 C.ar    1  UNL1        0.0000
     21 S          -1.0248   -0.6038   -3.7026 S.2     1  UNL1        0.0000
     22 C          -1.9127   -0.8705   -2.2425 C.ar    1  UNL1        0.0000
     23 C          -1.1419   -0.6788   -1.1133 C.ar    1  UNL1        0.0000
     24 C           6.0769    1.1166   -0.3742 C.2     1  UNL1        0.0000
     25 C           6.6649    1.2311    0.8364 C.2     1  UNL1        0.0000
     26 SI          5.4158    0.8803    2.2558 Si      1  UNL1        0.0000
     27 H          -4.2405    1.1138   -1.1526 H       1  UNL1        0.0000
     28 H          -4.0083    1.7560    0.5104 H       1  UNL1        0.0000
     29 H          -6.6391    1.7941   -0.1144 H       1  UNL1        0.0000
     30 H          -7.4273   -0.4867    0.8815 H       1  UNL1        0.0000
     31 H          -5.7799   -3.0523    1.6618 H       1  UNL1        0.0000
     32 H          -0.9021   -0.6983    2.2574 H       1  UNL1        0.0000
     33 H           1.8376   -0.0319    2.6493 H       1  UNL1        0.0000
     34 H           3.8988   -0.3149   -2.0243 H       1  UNL1        0.0000
     35 H           3.4605    1.4328   -1.9784 H       1  UNL1        0.0000
     36 H           1.3380   -0.0018   -3.3725 H       1  UNL1        0.0000
     37 H          -2.9530   -1.1569   -2.3146 H       1  UNL1        0.0000
     38 H           6.5820    1.2679   -1.3186 H       1  UNL1        0.0000
     39 H           7.6906    1.4815    1.0544 H       1  UNL1        0.0000
     40 H           5.8003   -0.3356    3.0162 H       1  UNL1        0.0000
     41 H           5.1922    2.0941    3.0812 H       1  UNL1        0.0000
@<TRIPOS>BOND
     1     1     2    1
     2     2     3    2
     3     3     4    1
     4     4     5   ar
     5     5     6   ar
     6     6     7   ar
     7     7     8   ar
     8     7     9    1
     9     9    10   ar
    10    10    11   ar
    11    11    12   ar
    12    12    13   ar
    13    13    14    1
    14    14    15    2
    15    15    16    1
    16    16    17    1
    17    17    18   ar
    18    18    19   ar
    19    19    20   ar
    20    20    21   ar
    21    21    22   ar
    22    22    23   ar
    23    15    24    1
    24    24    25    2
    25    25    26    1
    26     8     1    1
    27    23     9   ar
    28     8     4   ar
    29    18    11   ar
    30    23    19   ar
    31    17    13   ar
    32    26    14    1
    33     1    27    1
    34     1    28    1
    35     2    29    1
    36     3    30    1
    37     5    31    1
    38    10    32    1
    39    12    33    1
    40    16    34    1
    41    16    35    1
    42    20    36    1
    43    22    37    1
    44    24    38    1
    45    25    39    1
    46    26    40    1
    47    26    41    1
