@<TRIPOS>MOLECULE
*****
 39 45 0 0 0
SMALL
GASTEIGER

@<TRIPOS>ATOM
      1 C           5.0030    1.2817    0.1981 C.3     1  UNL1        0.0000
      2 C           6.5045    0.9795    0.2076 C.2     1  UNL1        0.0000
      3 C           6.7369   -0.3523    0.1917 C.2     1  UNL1        0.0000
      4 C           5.4985   -1.0389    0.1712 C.ar    1  UNL1        0.0000
      5 C           5.1116   -2.3423    0.1500 C.ar    1  UNL1        0.0000
      6 S           3.3885   -2.4228    0.1333 S.2     1  UNL1        0.0000
      7 C           3.1998   -0.6950    0.1550 C.ar    1  UNL1        0.0000
      8 C           4.4383   -0.0999    0.1743 C.ar    1  UNL1        0.0000
      9 C           1.8888   -0.0926    0.1513 C.ar    1  UNL1        0.0000
     10 C           1.5724    1.2610    0.1672 C.ar    1  UNL1        0.0000
     11 C           0.1642    1.2876    0.1546 C.ar    1  UNL1        0.0000
     12 N          -0.9246    2.1299    0.1563 N.ar    1  UNL1        0.0000
     13 C          -2.0471    1.3395    0.1351 C.ar    1  UNL1        0.0000
     14 C          -3.4238    1.7424    0.1281 C.ar    1  UNL1        0.0000
     15 S          -4.0016    3.3353    0.1449 S.2     1  UNL1        0.0000
     16 C          -5.6309    2.7945    0.1225 C.ar    1  UNL1        0.0000
     17 C          -5.7276    1.4169    0.1025 C.ar    1  UNL1        0.0000
     18 C          -4.4448    0.7991    0.1056 C.ar    1  UNL1        0.0000
     19 C          -4.1143   -0.6118    0.0891 C.ar    1  UNL1        0.0000
     20 C          -4.9808   -1.6448    0.0668 C.2     1  UNL1        0.0000
     21 SI         -4.0735   -3.2832    0.0523 Si      1  UNL1        0.0000
     22 C          -2.4594   -2.3558    0.0800 C.2     1  UNL1        0.0000
     23 C          -2.6692   -1.0264    0.0965 C.ar    1  UNL1        0.0000
     24 C          -1.6864    0.0005    0.1198 C.ar    1  UNL1        0.0000
     25 C          -0.2910    0.0153    0.1328 C.ar    1  UNL1        0.0000
     26 O           0.7400   -0.8624    0.1301 O.2     1  UNL1        0.0000
     27 H           4.7303    1.8491   -0.6961 H       1  UNL1        0.0000
     28 H           4.7141    1.8248    1.1022 H       1  UNL1        0.0000
     29 H           7.2666    1.7443    0.2248 H       1  UNL1        0.0000
     30 H           7.7078   -0.8273    0.1940 H       1  UNL1        0.0000
     31 H           5.7111   -3.2413    0.1433 H       1  UNL1        0.0000
     32 H           2.2537    2.0966    0.1850 H       1  UNL1        0.0000
     33 H          -0.8766    3.1404    0.1708 H       1  UNL1        0.0000
     34 H          -6.4380    3.5139    0.1251 H       1  UNL1        0.0000
     35 H          -6.6739    0.8916    0.0866 H       1  UNL1        0.0000
     36 H          -6.0574   -1.6017    0.0575 H       1  UNL1        0.0000
     37 H          -4.3134   -4.0599    1.2923 H       1  UNL1        0.0000
     38 H          -4.2905   -4.0250   -1.2129 H       1  UNL1        0.0000
     39 H          -1.5052   -2.8603    0.0817 H       1  UNL1        0.0000
@<TRIPOS>BOND
     1     1     2    1
     2     2     3    2
     3     3     4    1
     4     4     5   ar
     5     5     6   ar
     6     6     7   ar
     7     7     8   ar
     8     7     9    1
     9     9    10   ar
    10    10    11   ar
    11    11    12   ar
    12    12    13   ar
    13    13    14   ar
    14    14    15   ar
    15    15    16   ar
    16    16    17   ar
    17    17    18   ar
    18    18    19   ar
    19    19    20    2
    20    20    21    1
    21    21    22    1
    22    22    23    2
    23    23    24   ar
    24    24    25   ar
    25    25    26   ar
    26     8     1    1
    27    26     9   ar
    28     8     4   ar
    29    25    11   ar
    30    24    13   ar
    31    18    14   ar
    32    23    19   ar
    33     1    27    1
    34     1    28    1
    35     2    29    1
    36     3    30    1
    37     5    31    1
    38    10    32    1
    39    12    33    1
    40    16    34    1
    41    17    35    1
    42    20    36    1
    43    21    37    1
    44    21    38    1
    45    22    39    1
