@<TRIPOS>MOLECULE
*****
 46 52 0 0 0
SMALL
GASTEIGER

@<TRIPOS>ATOM
      1 SI         -0.5632    3.5204    2.0768 Si      1  UNL1        0.0000
      2 C          -1.7892    2.2683    1.4665 C.2     1  UNL1        0.0000
      3 C          -1.1975    1.2676    0.7865 C.ar    1  UNL1        0.0000
      4 C          -1.8192    0.1181    0.2004 C.ar    1  UNL1        0.0000
      5 C          -1.0059   -0.9564   -0.1590 C.ar    1  UNL1        0.0000
      6 N          -1.8215   -1.9964   -0.5421 N.ar    1  UNL1        0.0000
      7 C          -3.1420   -1.5997   -0.5622 C.ar    1  UNL1        0.0000
      8 C          -4.3102   -2.3229   -0.9243 C.ar    1  UNL1        0.0000
      9 C          -5.5727   -1.7006   -0.9362 C.ar    1  UNL1        0.0000
     10 C          -5.4987   -0.3560   -0.6058 C.ar    1  UNL1        0.0000
     11 C          -6.5715    0.5041   -0.6235 C.ar    1  UNL1        0.0000
     12 N          -6.0956    1.7638   -0.3128 N.ar    1  UNL1        0.0000
     13 C          -4.7303    1.7226   -0.1029 C.ar    1  UNL1        0.0000
     14 C          -4.3776    0.4125   -0.2376 C.ar    1  UNL1        0.0000
     15 C          -3.1177   -0.2648   -0.1652 C.ar    1  UNL1        0.0000
     16 C           0.4640   -0.9678   -0.1450 C.ar    1  UNL1        0.0000
     17 C           1.2099   -2.0658   -0.5820 C.ar    1  UNL1        0.0000
     18 C           2.6070   -2.0070   -0.5987 C.ar    1  UNL1        0.0000
     19 C           3.3026   -0.8553   -0.1941 C.ar    1  UNL1        0.0000
     20 C           2.5385    0.2385    0.2577 C.ar    1  UNL1        0.0000
     21 C           1.1323    0.2019    0.2925 C.ar    1  UNL1        0.0000
     22 C           0.3012    1.3340    0.8013 C.ar    1  UNL1        0.0000
     23 C           0.7974    2.4392    1.4012 C.2     1  UNL1        0.0000
     24 C           4.7800   -0.8165   -0.2388 C.ar    1  UNL1        0.0000
     25 C           5.5010    0.3472   -0.5122 C.ar    1  UNL1        0.0000
     26 C           6.8941    0.3004   -0.5356 C.ar    1  UNL1        0.0000
     27 C           7.5385   -0.9034   -0.2889 C.ar    1  UNL1        0.0000
     28 C           6.7587   -2.0163   -0.0340 C.ar    1  UNL1        0.0000
     29 N           5.4077   -1.9994   -0.0085 N.ar    1  UNL1        0.0000
     30 H          -0.5240    3.6189    3.5557 H       1  UNL1        0.0000
     31 H          -0.6611    4.8163    1.3621 H       1  UNL1        0.0000
     32 H          -2.8319    2.3687    1.7046 H       1  UNL1        0.0000
     33 H          -1.5054   -2.9126   -0.8204 H       1  UNL1        0.0000
     34 H          -4.2328   -3.3695   -1.2094 H       1  UNL1        0.0000
     35 H          -6.4779   -2.2206   -1.2177 H       1  UNL1        0.0000
     36 H          -7.6183    0.3547   -0.8494 H       1  UNL1        0.0000
     37 H          -6.6593    2.6030   -0.2829 H       1  UNL1        0.0000
     38 H          -4.1828    2.6331    0.0778 H       1  UNL1        0.0000
     39 H           0.7324   -2.9781   -0.9232 H       1  UNL1        0.0000
     40 H           3.1644   -2.8773   -0.9443 H       1  UNL1        0.0000
     41 H           3.0545    1.1275    0.6073 H       1  UNL1        0.0000
     42 H           1.8262    2.7028    1.5770 H       1  UNL1        0.0000
     43 H           4.9960    1.2836   -0.7246 H       1  UNL1        0.0000
     44 H           7.4682    1.1974   -0.7494 H       1  UNL1        0.0000
     45 H           8.6201   -0.9745   -0.2991 H       1  UNL1        0.0000
     46 H           7.2113   -2.9839    0.1627 H       1  UNL1        0.0000
@<TRIPOS>BOND
     1     1     2    1
     2     2     3    2
     3     3     4   ar
     4     4     5   ar
     5     5     6   ar
     6     6     7   ar
     7     7     8   ar
     8     8     9   ar
     9     9    10   ar
    10    10    11   ar
    11    11    12   ar
    12    12    13   ar
    13    13    14   ar
    14    14    15   ar
    15     5    16   ar
    16    16    17   ar
    17    17    18   ar
    18    18    19   ar
    19    19    20   ar
    20    20    21   ar
    21    21    22   ar
    22    22    23    2
    23    19    24    1
    24    24    25   ar
    25    25    26   ar
    26    26    27   ar
    27    27    28   ar
    28    28    29   ar
    29    23     1    1
    30    29    24   ar
    31    22     3   ar
    32    15     4   ar
    33    21    16   ar
    34    15     7   ar
    35    14    10   ar
    36     1    30    1
    37     1    31    1
    38     2    32    1
    39     6    33    1
    40     8    34    1
    41     9    35    1
    42    11    36    1
    43    12    37    1
    44    13    38    1
    45    17    39    1
    46    18    40    1
    47    20    41    1
    48    23    42    1
    49    25    43    1
    50    26    44    1
    51    27    45    1
    52    28    46    1
