@<TRIPOS>MOLECULE
*****
 34 39 0 0 0
SMALL
GASTEIGER

@<TRIPOS>ATOM
      1 C           4.2154   -1.0614    0.1786 C.3     1  UNL1       -0.0074
      2 C           5.6966   -0.7071    0.0172 C.2     1  UNL1       -0.0791
      3 C           5.8535    0.5748   -0.3829 C.2     1  UNL1       -0.0574
      4 C           4.5790    1.1761   -0.5230 C.ar    1  UNL1       -0.0141
      5 C           4.1198    2.4038   -0.8846 C.ar    1  UNL1       -0.0162
      6 S           2.3958    2.4053   -0.8243 S.2     1  UNL1       -0.0927
      7 C           2.3046    0.7473   -0.3106 C.ar    1  UNL1        0.0585
      8 C           3.5738    0.2330   -0.1971 C.ar    1  UNL1       -0.0188
      9 C           1.0298    0.1153   -0.0710 C.ar    1  UNL1        0.1446
     10 C           0.7898   -1.1916    0.3415 C.ar    1  UNL1        0.0088
     11 C          -0.6146   -1.2799    0.4177 C.ar    1  UNL1        0.0867
     12 N          -1.6602   -2.1395    0.7200 N.ar    1  UNL1       -0.3515
     13 C          -2.8596   -1.4587    0.5513 C.ar    1  UNL1        0.0512
     14 C          -4.2198   -1.8323    0.7143 C.ar    1  UNL1       -0.0370
     15 C          -5.2605   -0.8942    0.4604 C.ar    1  UNL1       -0.0490
     16 C          -4.7956    0.3600    0.0562 C.ar    1  UNL1        0.0207
     17 C          -5.5500    1.4642   -0.2590 C.ar    1  UNL1        0.0994
     18 O          -4.7303    2.5147   -0.6126 O.2     1  UNL1       -0.4698
     19 C          -3.4274    2.0780   -0.5230 C.ar    1  UNL1        0.1001
     20 C          -3.4707    0.7840   -0.1211 C.ar    1  UNL1        0.0325
     21 C          -2.5010   -0.1878    0.1456 C.ar    1  UNL1        0.0533
     22 C          -1.1347   -0.0827    0.0655 C.ar    1  UNL1        0.1615
     23 O          -0.1601    0.8011   -0.2417 O.2     1  UNL1       -0.4521
     24 H           3.9968   -1.3395    1.2134 H       1  UNL1        0.0356
     25 H           3.9360   -1.8683   -0.5046 H       1  UNL1        0.0356
     26 H           6.5003   -1.4038    0.2033 H       1  UNL1        0.0575
     27 H           6.7955    1.0710   -0.5689 H       1  UNL1        0.0621
     28 H           4.6674    3.2885   -1.1763 H       1  UNL1        0.0699
     29 H           1.5178   -1.9585    0.5534 H       1  UNL1        0.0676
     30 H          -1.5370   -3.0999    1.0128 H       1  UNL1        0.1660
     31 H          -4.4758   -2.8395    1.0348 H       1  UNL1        0.0638
     32 H          -6.3063   -1.1489    0.5757 H       1  UNL1        0.0625
     33 H          -6.6083    1.6802   -0.2889 H       1  UNL1        0.1035
     34 H          -2.6598    2.7963   -0.7720 H       1  UNL1        0.1036
@<TRIPOS>BOND
     1     1     2    1
     2     2     3    2
     3     3     4    1
     4     4     5   ar
     5     5     6   ar
     6     6     7   ar
     7     7     8   ar
     8     7     9    1
     9     9    10   ar
    10    10    11   ar
    11    11    12   ar
    12    12    13   ar
    13    13    14   ar
    14    14    15   ar
    15    15    16   ar
    16    16    17   ar
    17    17    18   ar
    18    18    19   ar
    19    19    20   ar
    20    20    21   ar
    21    21    22   ar
    22    22    23   ar
    23     8     1    1
    24    23     9   ar
    25     8     4   ar
    26    22    11   ar
    27    21    13   ar
    28    20    16   ar
    29     1    24    1
    30     1    25    1
    31     2    26    1
    32     3    27    1
    33     5    28    1
    34    10    29    1
    35    12    30    1
    36    14    31    1
    37    15    32    1
    38    17    33    1
    39    19    34    1
