@<TRIPOS>MOLECULE
*****
 46 53 0 0 0
SMALL
GASTEIGER

@<TRIPOS>ATOM
      1 C           4.1391    0.4665   -1.7877 C.3     1  UNL1        0.0000
      2 C           5.5379    0.4372   -2.4096 C.2     1  UNL1        0.0000
      3 C           6.3604   -0.3912   -1.7275 C.2     1  UNL1        0.0000
      4 C           5.6486   -0.9641   -0.6454 C.ar    1  UNL1        0.0000
      5 C           5.9443   -1.8288    0.3615 C.ar    1  UNL1        0.0000
      6 S           4.5463   -2.0519    1.3468 S.2     1  UNL1        0.0000
      7 C           3.5671   -0.9844    0.3880 C.ar    1  UNL1        0.0000
      8 C           4.3171   -0.4819   -0.6480 C.ar    1  UNL1        0.0000
      9 C           2.1923   -0.7297    0.7163 C.ar    1  UNL1        0.0000
     10 C           1.5110   -0.8848    1.9109 C.ar    1  UNL1        0.0000
     11 C           0.1684   -0.5165    1.6786 C.ar    1  UNL1        0.0000
     12 C           0.0504   -0.0726    0.3723 C.ar    1  UNL1        0.0000
     13 N           1.2706   -0.2983   -0.2141 N.ar    1  UNL1        0.0000
     14 C          -1.2054    0.3516   -0.2494 C.ar    1  UNL1        0.0000
     15 C          -1.3679    0.8938   -1.5389 C.ar    1  UNL1        0.0000
     16 C          -0.3563    1.3349   -2.3677 C.ar    1  UNL1        0.0000
     17 S          -0.9355    1.9314   -3.8855 S.2     1  UNL1        0.0000
     18 C          -2.5748    1.6773   -3.4396 C.ar    1  UNL1        0.0000
     19 C          -2.6073    1.1566   -2.1793 C.ar    1  UNL1        0.0000
     20 C          -3.7957    0.8426   -1.4578 C.ar    1  UNL1        0.0000
     21 C          -5.1246    0.9596   -1.8673 C.ar    1  UNL1        0.0000
     22 C          -5.8601    0.5049   -0.7956 C.ar    1  UNL1        0.0000
     23 N          -4.9900    0.1399    0.2094 N.ar    1  UNL1        0.0000
     24 C          -3.6768    0.3685   -0.1585 C.ar    1  UNL1        0.0000
     25 C          -2.4284    0.1766    0.4972 C.ar    1  UNL1        0.0000
     26 C          -2.3134   -0.1975    1.9456 C.ar    1  UNL1        0.0000
     27 C          -3.2932   -0.1689    2.8771 C.2     1  UNL1        0.0000
     28 SI         -2.6681   -0.6808    4.5718 Si      1  UNL1        0.0000
     29 C          -0.9753   -0.8452    3.8424 C.2     1  UNL1        0.0000
     30 C          -0.9770   -0.5511    2.5277 C.ar    1  UNL1        0.0000
     31 H           3.8873    1.4735   -1.4437 H       1  UNL1        0.0000
     32 H           3.3953    0.1086   -2.5049 H       1  UNL1        0.0000
     33 H           5.8158    1.0115   -3.2809 H       1  UNL1        0.0000
     34 H           7.3976   -0.5881   -1.9592 H       1  UNL1        0.0000
     35 H           6.8727   -2.3325    0.5893 H       1  UNL1        0.0000
     36 H           1.9340   -1.2482    2.8380 H       1  UNL1        0.0000
     37 H           1.4640   -0.2295   -1.1994 H       1  UNL1        0.0000
     38 H           0.7058    1.3908   -2.1983 H       1  UNL1        0.0000
     39 H          -3.3827    1.9359   -4.1091 H       1  UNL1        0.0000
     40 H          -5.5213    1.3075   -2.8110 H       1  UNL1        0.0000
     41 H          -6.9276    0.3936   -0.6596 H       1  UNL1        0.0000
     42 H          -5.2779   -0.2890    1.0750 H       1  UNL1        0.0000
     43 H          -4.3181    0.1352    2.7882 H       1  UNL1        0.0000
     44 H          -3.2498   -1.9758    4.9997 H       1  UNL1        0.0000
     45 H          -2.7778    0.4215    5.5568 H       1  UNL1        0.0000
     46 H          -0.1210   -1.1088    4.4450 H       1  UNL1        0.0000
@<TRIPOS>BOND
     1     1     2    1
     2     2     3    2
     3     3     4    1
     4     4     5   ar
     5     5     6   ar
     6     6     7   ar
     7     7     8   ar
     8     7     9    1
     9     9    10   ar
    10    10    11   ar
    11    11    12   ar
    12    12    13   ar
    13    12    14   ar
    14    14    15   ar
    15    15    16   ar
    16    16    17   ar
    17    17    18   ar
    18    18    19   ar
    19    19    20   ar
    20    20    21   ar
    21    21    22   ar
    22    22    23   ar
    23    23    24   ar
    24    24    25   ar
    25    25    26   ar
    26    26    27    2
    27    27    28    1
    28    28    29    1
    29    29    30    2
    30     8     1    1
    31    13     9   ar
    32    25    14   ar
    33    30    26   ar
    34     8     4   ar
    35    30    11   ar
    36    19    15   ar
    37    24    20   ar
    38     1    31    1
    39     1    32    1
    40     2    33    1
    41     3    34    1
    42     5    35    1
    43    10    36    1
    44    13    37    1
    45    16    38    1
    46    18    39    1
    47    21    40    1
    48    22    41    1
    49    23    42    1
    50    27    43    1
    51    28    44    1
    52    28    45    1
    53    29    46    1
