@<TRIPOS>MOLECULE
*****
 45 52 0 0 0
SMALL
GASTEIGER

@<TRIPOS>ATOM
      1 C           4.2521   -0.8026   -1.8104 C.3     1  UNL1        0.0000
      2 C           5.7686   -0.9758   -1.9601 C.2     1  UNL1        0.0000
      3 C           6.4313   -0.4486   -0.9051 C.2     1  UNL1        0.0000
      4 C           5.4945    0.0984    0.0053 C.ar    1  UNL1        0.0000
      5 C           5.5542    0.7368    1.2058 C.ar    1  UNL1        0.0000
      6 S           3.9509    1.1095    1.7345 S.2     1  UNL1        0.0000
      7 C           3.2191    0.4159    0.3257 C.ar    1  UNL1        0.0000
      8 C           4.1887   -0.0897   -0.5020 C.ar    1  UNL1        0.0000
      9 C           1.7784    0.4295    0.1773 C.ar    1  UNL1        0.0000
     10 C           0.8809   -0.2660    1.0303 C.ar    1  UNL1        0.0000
     11 C          -0.5511   -0.2749    0.8690 C.ar    1  UNL1        0.0000
     12 C          -1.2045    0.4426   -0.1982 C.ar    1  UNL1        0.0000
     13 C          -0.3102    1.1245   -1.0268 C.ar    1  UNL1        0.0000
     14 C          -0.5788    1.9078   -2.1219 C.ar    1  UNL1        0.0000
     15 N           0.6242    2.3816   -2.5975 N.ar    1  UNL1        0.0000
     16 C           1.6608    1.9083   -1.8250 C.ar    1  UNL1        0.0000
     17 C           1.1119    1.1149   -0.8458 C.ar    1  UNL1        0.0000
     18 C          -2.6465    0.3925   -0.2984 C.ar    1  UNL1        0.0000
     19 O          -3.3211    1.0462   -1.2764 O.2     1  UNL1        0.0000
     20 C          -4.6377    0.7608   -1.0290 C.ar    1  UNL1        0.0000
     21 C          -5.8314    1.1375   -1.6747 C.ar    1  UNL1        0.0000
     22 C          -6.8949    0.5660   -1.0058 C.ar    1  UNL1        0.0000
     23 S          -6.4430   -0.3973    0.3587 S.2     1  UNL1        0.0000
     24 C          -4.7730   -0.0455    0.0618 C.ar    1  UNL1        0.0000
     25 C          -3.4765   -0.2964    0.5507 C.ar    1  UNL1        0.0000
     26 C          -2.9441   -1.0410    1.6331 C.ar    1  UNL1        0.0000
     27 C          -3.6266   -1.7639    2.5413 C.2     1  UNL1        0.0000
     28 SI         -2.4771   -2.5604    3.7702 Si      1  UNL1        0.0000
     29 C          -1.0377   -1.7740    2.8636 C.2     1  UNL1        0.0000
     30 C          -1.4518   -1.0393    1.8085 C.ar    1  UNL1        0.0000
     31 H           3.8509   -0.1993   -2.6290 H       1  UNL1        0.0000
     32 H           3.7525   -1.7744   -1.7686 H       1  UNL1        0.0000
     33 H           6.2302   -1.4614   -2.8070 H       1  UNL1        0.0000
     34 H           7.5033   -0.4417   -0.7682 H       1  UNL1        0.0000
     35 H           6.4135    1.0049    1.8037 H       1  UNL1        0.0000
     36 H           1.3216   -0.8298    1.8507 H       1  UNL1        0.0000
     37 H          -1.5039    2.1857   -2.6081 H       1  UNL1        0.0000
     38 H           0.7283    2.9979   -3.3938 H       1  UNL1        0.0000
     39 H           2.6817    2.1915   -2.0442 H       1  UNL1        0.0000
     40 H          -5.9081    1.7693   -2.5484 H       1  UNL1        0.0000
     41 H          -7.9454    0.6592   -1.2462 H       1  UNL1        0.0000
     42 H          -4.6943   -1.9008    2.6021 H       1  UNL1        0.0000
     43 H          -2.6417   -2.0183    5.1394 H       1  UNL1        0.0000
     44 H          -2.4650   -4.0390    3.6647 H       1  UNL1        0.0000
     45 H          -0.0331   -1.9413    3.2133 H       1  UNL1        0.0000
@<TRIPOS>BOND
     1     1     2    1
     2     2     3    2
     3     3     4    1
     4     4     5   ar
     5     5     6   ar
     6     6     7   ar
     7     7     8   ar
     8     7     9    1
     9     9    10   ar
    10    10    11   ar
    11    11    12   ar
    12    12    13   ar
    13    13    14   ar
    14    14    15   ar
    15    15    16   ar
    16    16    17   ar
    17    12    18   ar
    18    18    19   ar
    19    19    20   ar
    20    20    21   ar
    21    21    22   ar
    22    22    23   ar
    23    23    24   ar
    24    24    25   ar
    25    25    26   ar
    26    26    27    2
    27    27    28    1
    28    28    29    1
    29    29    30    2
    30     8     1    1
    31    17     9   ar
    32    25    18   ar
    33    30    26   ar
    34     8     4   ar
    35    30    11   ar
    36    17    13   ar
    37    24    20   ar
    38     1    31    1
    39     1    32    1
    40     2    33    1
    41     3    34    1
    42     5    35    1
    43    10    36    1
    44    14    37    1
    45    15    38    1
    46    16    39    1
    47    21    40    1
    48    22    41    1
    49    27    42    1
    50    28    43    1
    51    28    44    1
    52    29    45    1
