@<TRIPOS>MOLECULE
*****
 47 54 0 0 0
SMALL
GASTEIGER

@<TRIPOS>ATOM
      1 C          -5.5308    0.2919    1.1786 C.3     1  UNL1        0.0000
      2 C          -7.0387    0.5226    1.3259 C.2     1  UNL1        0.0000
      3 C          -7.6080    0.8206    0.1369 C.2     1  UNL1        0.0000
      4 C          -6.6094    0.8260   -0.8671 C.ar    1  UNL1        0.0000
      5 C          -6.5855    1.0565   -2.2060 C.ar    1  UNL1        0.0000
      6 S          -4.9698    0.8940   -2.7798 S.2     1  UNL1        0.0000
      7 C          -4.3235    0.5148   -1.2041 C.ar    1  UNL1        0.0000
      8 C          -5.3534    0.5161   -0.2897 C.ar    1  UNL1        0.0000
      9 C          -2.9102    0.2583   -1.0130 C.ar    1  UNL1        0.0000
     10 C          -1.8747    0.5065   -1.9017 C.ar    1  UNL1        0.0000
     11 C          -0.6043    0.1254   -1.3850 C.ar    1  UNL1        0.0000
     12 C          -0.6884   -0.4038   -0.1122 C.ar    1  UNL1        0.0000
     13 S          -2.3002   -0.4439    0.4347 S.2     1  UNL1        0.0000
     14 C           0.4661   -0.8361    0.6953 C.ar    1  UNL1        0.0000
     15 N           0.1815   -1.3797    1.9013 N.ar    1  UNL1        0.0000
     16 C           1.2294   -1.6912    2.6927 C.ar    1  UNL1        0.0000
     17 C           2.5632   -1.4094    2.4171 C.ar    1  UNL1        0.0000
     18 C           3.5640   -1.7413    3.4091 C.ar    1  UNL1        0.0000
     19 C           4.9337   -1.4282    3.3170 C.ar    1  UNL1        0.0000
     20 C           5.1701   -0.7044    2.1647 C.ar    1  UNL1        0.0000
     21 C           6.3735   -0.1313    1.8450 C.ar    1  UNL1        0.0000
     22 N           6.1697    0.5968    0.6970 N.ar    1  UNL1        0.0000
     23 C           4.8523    0.4949    0.3009 C.ar    1  UNL1        0.0000
     24 C           4.2142   -0.3801    1.1499 C.ar    1  UNL1        0.0000
     25 C           2.8349   -0.7708    1.1535 C.ar    1  UNL1        0.0000
     26 C           1.7706   -0.6025    0.2097 C.ar    1  UNL1        0.0000
     27 C           1.8775   -0.2501   -1.2400 C.ar    1  UNL1        0.0000
     28 C           2.9578   -0.4577   -2.0234 C.2     1  UNL1        0.0000
     29 SI          2.6726    0.0994   -3.7836 Si      1  UNL1        0.0000
     30 C           0.9053    0.4511   -3.3213 C.2     1  UNL1        0.0000
     31 C           0.6777    0.1810   -2.0204 C.ar    1  UNL1        0.0000
     32 H          -5.2754   -0.7299    1.4723 H       1  UNL1        0.0000
     33 H          -4.9714    1.0191    1.7737 H       1  UNL1        0.0000
     34 H          -7.5612    0.4491    2.2678 H       1  UNL1        0.0000
     35 H          -8.6558    1.0254   -0.0305 H       1  UNL1        0.0000
     36 H          -7.3945    1.3076   -2.8769 H       1  UNL1        0.0000
     37 H          -2.0234    0.9414   -2.8819 H       1  UNL1        0.0000
     38 H           0.9391   -2.1654    3.6282 H       1  UNL1        0.0000
     39 H           3.2413   -2.2552    4.3176 H       1  UNL1        0.0000
     40 H           5.6573   -1.6644    4.0834 H       1  UNL1        0.0000
     41 H           7.3368   -0.1336    2.3369 H       1  UNL1        0.0000
     42 H           6.8676    1.1716    0.2426 H       1  UNL1        0.0000
     43 H           4.5070    1.0848   -0.5352 H       1  UNL1        0.0000
     44 H           3.9028   -0.8949   -1.7460 H       1  UNL1        0.0000
     45 H           2.7998   -1.0109   -4.7569 H       1  UNL1        0.0000
     46 H           3.4350    1.3293   -4.1077 H       1  UNL1        0.0000
     47 H           0.1780    0.7219   -4.0697 H       1  UNL1        0.0000
@<TRIPOS>BOND
     1     1     2    1
     2     2     3    2
     3     3     4    1
     4     4     5   ar
     5     5     6   ar
     6     6     7   ar
     7     7     8   ar
     8     7     9    1
     9     9    10   ar
    10    10    11   ar
    11    11    12   ar
    12    12    13   ar
    13    12    14   ar
    14    14    15   ar
    15    15    16   ar
    16    16    17   ar
    17    17    18   ar
    18    18    19   ar
    19    19    20   ar
    20    20    21   ar
    21    21    22   ar
    22    22    23   ar
    23    23    24   ar
    24    24    25   ar
    25    25    26   ar
    26    26    27   ar
    27    27    28    2
    28    28    29    1
    29    29    30    1
    30    30    31    2
    31     8     1    1
    32    13     9   ar
    33    26    14   ar
    34    31    27   ar
    35     8     4   ar
    36    31    11   ar
    37    25    17   ar
    38    24    20   ar
    39     1    32    1
    40     1    33    1
    41     2    34    1
    42     3    35    1
    43     5    36    1
    44    10    37    1
    45    16    38    1
    46    18    39    1
    47    19    40    1
    48    21    41    1
    49    22    42    1
    50    23    43    1
    51    28    44    1
    52    29    45    1
    53    29    46    1
    54    30    47    1
