@<TRIPOS>MOLECULE
*****
 49 56 0 0 0
SMALL
GASTEIGER

@<TRIPOS>ATOM
      1 C           5.1366    1.7824    0.5719 C.3     1  UNL1        0.0000
      2 C           6.6407    2.0404    0.7318 C.2     1  UNL1        0.0000
      3 C           7.3448    0.8860    0.6961 C.2     1  UNL1        0.0000
      4 C           6.4502   -0.1976    0.5210 C.ar    1  UNL1        0.0000
      5 C           6.5599   -1.5479    0.4139 C.ar    1  UNL1        0.0000
      6 S           4.9887   -2.2310    0.2108 S.2     1  UNL1        0.0000
      7 C           4.1808   -0.6898    0.2751 C.ar    1  UNL1        0.0000
      8 C           5.1282    0.2950    0.4435 C.ar    1  UNL1        0.0000
      9 C           2.7199   -0.5616    0.1523 C.ar    1  UNL1        0.0000
     10 C           1.8431   -1.6297    0.0797 C.ar    1  UNL1        0.0000
     11 C           0.4582   -1.3647   -0.0388 C.ar    1  UNL1        0.0000
     12 C          -0.5597   -2.3422   -0.0730 C.ar    1  UNL1        0.0000
     13 C          -0.3749   -3.7043   -0.0476 C.ar    1  UNL1        0.0000
     14 N          -1.6177   -4.2828   -0.1087 N.ar    1  UNL1        0.0000
     15 C          -2.5888   -3.3060   -0.1658 C.ar    1  UNL1        0.0000
     16 C          -1.9691   -2.0779   -0.1065 C.ar    1  UNL1        0.0000
     17 C          -2.5345   -0.7916   -0.1422 C.ar    1  UNL1        0.0000
     18 C          -3.9560   -0.4359    0.0359 C.ar    1  UNL1        0.0000
     19 SI         -5.3121   -1.5026    0.7775 Si      1  UNL1        0.0000
     20 C          -6.4693   -0.0488    0.7037 C.2     1  UNL1        0.0000
     21 C          -5.8339    1.0275    0.2122 C.2     1  UNL1        0.0000
     22 C          -4.4200    0.8334   -0.1373 C.ar    1  UNL1        0.0000
     23 C          -3.4971    1.8527   -0.6102 C.ar    1  UNL1        0.0000
     24 C          -3.8746    3.0675   -1.0606 C.2     1  UNL1        0.0000
     25 SI         -2.4403    4.0167   -1.7600 Si      1  UNL1        0.0000
     26 C          -1.3643    2.5378   -1.3722 C.2     1  UNL1        0.0000
     27 C          -2.0426    1.5657   -0.7215 C.ar    1  UNL1        0.0000
     28 C          -1.5077    0.2217   -0.3020 C.ar    1  UNL1        0.0000
     29 C          -0.0651   -0.0448   -0.1296 C.ar    1  UNL1        0.0000
     30 C           0.9361    0.9278    0.0153 C.ar    1  UNL1        0.0000
     31 N           2.2765    0.7154    0.1386 N.ar    1  UNL1        0.0000
     32 H           4.5912    2.1199    1.4576 H       1  UNL1        0.0000
     33 H           4.7556    2.2735   -0.3277 H       1  UNL1        0.0000
     34 H           7.0628    3.0263    0.8555 H       1  UNL1        0.0000
     35 H           8.4178    0.7951    0.7861 H       1  UNL1        0.0000
     36 H           7.4414   -2.1723    0.4393 H       1  UNL1        0.0000
     37 H           2.1973   -2.6514    0.1271 H       1  UNL1        0.0000
     38 H           0.5114   -4.3226   -0.0082 H       1  UNL1        0.0000
     39 H          -1.7954   -5.2791   -0.1335 H       1  UNL1        0.0000
     40 H          -3.6157   -3.6163   -0.2756 H       1  UNL1        0.0000
     41 H          -5.7703   -2.5949   -0.1193 H       1  UNL1        0.0000
     42 H          -5.0400   -1.9211    2.1755 H       1  UNL1        0.0000
     43 H          -7.4971   -0.1063    1.0241 H       1  UNL1        0.0000
     44 H          -6.3146    1.9898    0.0920 H       1  UNL1        0.0000
     45 H          -4.8740    3.4678   -1.1090 H       1  UNL1        0.0000
     46 H          -2.5667    4.2575   -3.2173 H       1  UNL1        0.0000
     47 H          -2.0823    5.2005   -0.9423 H       1  UNL1        0.0000
     48 H          -0.3429    2.5421   -1.7120 H       1  UNL1        0.0000
     49 H           0.6854    1.9812    0.0945 H       1  UNL1        0.0000
@<TRIPOS>BOND
     1     1     2    1
     2     2     3    2
     3     3     4    1
     4     4     5   ar
     5     5     6   ar
     6     6     7   ar
     7     7     8   ar
     8     7     9    1
     9     9    10   ar
    10    10    11   ar
    11    11    12   ar
    12    12    13   ar
    13    13    14   ar
    14    14    15   ar
    15    15    16   ar
    16    16    17   ar
    17    17    18   ar
    18    18    19    1
    19    19    20    1
    20    20    21    2
    21    21    22    1
    22    22    23   ar
    23    23    24    2
    24    24    25    1
    25    25    26    1
    26    26    27    2
    27    27    28   ar
    28    28    29   ar
    29    29    30   ar
    30    30    31   ar
    31     8     1    1
    32    31     9   ar
    33     8     4   ar
    34    29    11   ar
    35    16    12   ar
    36    28    17   ar
    37    22    18   ar
    38    27    23   ar
    39     1    32    1
    40     1    33    1
    41     2    34    1
    42     3    35    1
    43     5    36    1
    44    10    37    1
    45    13    38    1
    46    14    39    1
    47    15    40    1
    48    19    41    1
    49    19    42    1
    50    20    43    1
    51    21    44    1
    52    24    45    1
    53    25    46    1
    54    25    47    1
    55    26    48    1
    56    30    49    1
