@<TRIPOS>MOLECULE
*****
 39 45 0 0 0
SMALL
GASTEIGER

@<TRIPOS>ATOM
      1 C          -4.2729   -1.6650   -0.5156 C.3     1  UNL1       -0.0075
      2 C          -5.7716   -1.9634   -0.6194 C.2     1  UNL1       -0.0791
      3 C          -6.5099   -0.9384   -0.1397 C.2     1  UNL1       -0.0574
      4 C          -5.6430    0.0881    0.3072 C.ar    1  UNL1       -0.0142
      5 C          -5.8082    1.3151    0.8665 C.ar    1  UNL1       -0.0163
      6 S          -4.2637    2.0183    1.1529 S.2     1  UNL1       -0.0953
      7 C          -3.3883    0.6489    0.5142 C.ar    1  UNL1        0.0300
      8 C          -4.2962   -0.3023    0.1022 C.ar    1  UNL1       -0.0212
      9 C          -1.9376    0.6362    0.4782 C.ar    1  UNL1        0.0274
     10 C          -1.0729    1.6279    0.9126 C.ar    1  UNL1       -0.0380
     11 C           0.2631    1.2453    0.7097 C.ar    1  UNL1        0.0011
     12 C           1.4075    2.0203    1.0391 C.ar    1  UNL1        0.0287
     13 C           1.4838    3.2551    1.6010 C.ar    1  UNL1        0.1000
     14 O           2.8102    3.5670    1.7151 O.2     1  UNL1       -0.4698
     15 C           3.5261    2.5060    1.2157 C.ar    1  UNL1        0.1000
     16 C           2.6881    1.5022    0.7754 C.ar    1  UNL1        0.0293
     17 C           3.0073    0.2618    0.2025 C.ar    1  UNL1        0.0082
     18 C           4.2915   -0.2767   -0.0706 C.ar    1  UNL1        0.0277
     19 S           5.8658    0.3951    0.2023 S.2     1  UNL1       -0.0960
     20 C           6.6728   -0.9564   -0.4317 C.ar    1  UNL1       -0.0232
     21 C           5.7937   -1.9203   -0.8528 C.ar    1  UNL1       -0.0470
     22 C           4.4195   -1.5497   -0.6542 C.ar    1  UNL1       -0.0102
     23 C           3.2494   -2.2821   -0.9635 C.ar    1  UNL1       -0.0529
     24 C           1.9797   -1.7651   -0.7005 C.ar    1  UNL1       -0.0523
     25 C           1.8314   -0.5010   -0.1205 C.ar    1  UNL1       -0.0018
     26 C           0.4994    0.0068    0.1395 C.ar    1  UNL1        0.0284
     27 S          -1.0556   -0.7053   -0.1525 S.2     1  UNL1       -0.0871
     28 H          -3.7831   -2.3990    0.1303 H       1  UNL1        0.0356
     29 H          -3.8174   -1.6561   -1.5097 H       1  UNL1        0.0356
     30 H          -6.1688   -2.8812   -1.0268 H       1  UNL1        0.0575
     31 H          -7.5893   -0.8989   -0.0993 H       1  UNL1        0.0621
     32 H          -6.7179    1.8391    1.1229 H       1  UNL1        0.0699
     33 H          -1.3965    2.5650    1.3471 H       1  UNL1        0.0635
     34 H           0.7870    4.0003    1.9559 H       1  UNL1        0.1036
     35 H           4.5948    2.6511    1.2592 H       1  UNL1        0.1036
     36 H           7.7533   -0.9843   -0.4676 H       1  UNL1        0.0694
     37 H           6.1118   -2.8597   -1.2883 H       1  UNL1        0.0629
     38 H           3.3372   -3.2682   -1.4153 H       1  UNL1        0.0624
     39 H           1.1193   -2.3765   -0.9611 H       1  UNL1        0.0624
@<TRIPOS>BOND
     1     1     2    1
     2     2     3    2
     3     3     4    1
     4     4     5   ar
     5     5     6   ar
     6     6     7   ar
     7     7     8   ar
     8     7     9    1
     9     9    10   ar
    10    10    11   ar
    11    11    12   ar
    12    12    13   ar
    13    13    14   ar
    14    14    15   ar
    15    15    16   ar
    16    16    17   ar
    17    17    18   ar
    18    18    19   ar
    19    19    20   ar
    20    20    21   ar
    21    21    22   ar
    22    22    23   ar
    23    23    24   ar
    24    24    25   ar
    25    25    26   ar
    26    26    27   ar
    27     8     1    1
    28    27     9   ar
    29     8     4   ar
    30    26    11   ar
    31    16    12   ar
    32    25    17   ar
    33    22    18   ar
    34     1    28    1
    35     1    29    1
    36     2    30    1
    37     3    31    1
    38     5    32    1
    39    10    33    1
    40    13    34    1
    41    15    35    1
    42    20    36    1
    43    21    37    1
    44    23    38    1
    45    24    39    1
