@<TRIPOS>MOLECULE
*****
 45 52 0 0 0
SMALL
GASTEIGER

@<TRIPOS>ATOM
      1 C          -4.4098   -2.0954    0.1116 C.3     1  UNL1       -0.0075
      2 C          -5.7874   -2.7640    0.1481 C.2     1  UNL1       -0.0791
      3 C          -6.7731   -1.8489    0.2784 C.2     1  UNL1       -0.0574
      4 C          -6.2000   -0.5555    0.3389 C.ar    1  UNL1       -0.0142
      5 C          -6.6821    0.7085    0.4632 C.ar    1  UNL1       -0.0163
      6 S          -5.3662    1.8179    0.4630 S.2     1  UNL1       -0.0953
      7 C          -4.1571    0.5693    0.2939 C.ar    1  UNL1        0.0300
      8 C          -4.7895   -0.6540    0.2430 C.ar    1  UNL1       -0.0212
      9 C          -2.7446    0.8965    0.2290 C.ar    1  UNL1        0.0274
     10 C          -2.1662    2.1552    0.2752 C.ar    1  UNL1       -0.0380
     11 C          -0.7684    2.0618    0.1841 C.ar    1  UNL1        0.0011
     12 C           0.1396    3.1575    0.1997 C.ar    1  UNL1        0.0287
     13 C          -0.0819    4.4951    0.2996 C.ar    1  UNL1        0.1000
     14 O           1.1406    5.1170    0.2654 O.2     1  UNL1       -0.4698
     15 C           2.0972    4.1383    0.1439 C.ar    1  UNL1        0.1000
     16 C           1.5105    2.8932    0.0991 C.ar    1  UNL1        0.0282
     17 C           2.1516    1.6442   -0.0207 C.ar    1  UNL1       -0.0055
     18 C           3.5496    1.4184   -0.1206 C.ar    1  UNL1       -0.0456
     19 C           4.0657    0.1227   -0.2359 C.ar    1  UNL1       -0.0166
     20 C           5.4961   -0.0905   -0.3370 C.ar    1  UNL1       -0.0533
     21 C           6.1342   -1.3504   -0.4575 C.ar    1  UNL1       -0.0504
     22 C           5.1908   -2.3643   -0.4654 C.ar    1  UNL1        0.0205
     23 C           5.4296   -3.7083   -0.5669 C.ar    1  UNL1        0.0994
     24 O           4.2401   -4.3848   -0.5380 O.2     1  UNL1       -0.4698
     25 C           3.2406   -3.4567   -0.4170 C.ar    1  UNL1        0.1000
     26 C           3.7808   -2.1972   -0.3685 C.ar    1  UNL1        0.0276
     27 C           3.1185   -0.9551   -0.2478 C.ar    1  UNL1       -0.0065
     28 C           1.7211   -0.7430   -0.1488 C.ar    1  UNL1       -0.0445
     29 C           1.2148    0.5629   -0.0335 C.ar    1  UNL1       -0.0023
     30 C          -0.2137    0.7969    0.0686 C.ar    1  UNL1        0.0283
     31 S          -1.5350   -0.3251    0.0766 S.2     1  UNL1       -0.0871
     32 H          -3.7997   -2.4364    0.9527 H       1  UNL1        0.0356
     33 H          -3.9118   -2.3026   -0.8396 H       1  UNL1        0.0356
     34 H          -5.9327   -3.8317    0.0776 H       1  UNL1        0.0575
     35 H          -7.8318   -2.0604    0.3291 H       1  UNL1        0.0621
     36 H          -7.7030    1.0513    0.5528 H       1  UNL1        0.0699
     37 H          -2.7269    3.0764    0.3686 H       1  UNL1        0.0635
     38 H          -0.9414    5.1425    0.3939 H       1  UNL1        0.1036
     39 H           3.1142    4.5022    0.1055 H       1  UNL1        0.1036
     40 H           4.2290    2.2673   -0.1072 H       1  UNL1        0.0630
     41 H           6.1464    0.7872   -0.3200 H       1  UNL1        0.0624
     42 H           7.2050   -1.4741   -0.5309 H       1  UNL1        0.0625
     43 H           6.3130   -4.3237   -0.6607 H       1  UNL1        0.1035
     44 H           2.2391   -3.8607   -0.3819 H       1  UNL1        0.1036
     45 H           1.0543   -1.5998   -0.1634 H       1  UNL1        0.0630
@<TRIPOS>BOND
     1     1     2    1
     2     2     3    2
     3     3     4    1
     4     4     5   ar
     5     5     6   ar
     6     6     7   ar
     7     7     8   ar
     8     7     9    1
     9     9    10   ar
    10    10    11   ar
    11    11    12   ar
    12    12    13   ar
    13    13    14   ar
    14    14    15   ar
    15    15    16   ar
    16    16    17   ar
    17    17    18   ar
    18    18    19   ar
    19    19    20   ar
    20    20    21   ar
    21    21    22   ar
    22    22    23   ar
    23    23    24   ar
    24    24    25   ar
    25    25    26   ar
    26    26    27   ar
    27    27    28   ar
    28    28    29   ar
    29    29    30   ar
    30    30    31   ar
    31     8     1    1
    32    31     9   ar
    33     8     4   ar
    34    30    11   ar
    35    16    12   ar
    36    29    17   ar
    37    27    19   ar
    38    26    22   ar
    39     1    32    1
    40     1    33    1
    41     2    34    1
    42     3    35    1
    43     5    36    1
    44    10    37    1
    45    13    38    1
    46    15    39    1
    47    18    40    1
    48    20    41    1
    49    21    42    1
    50    23    43    1
    51    25    44    1
    52    28    45    1
