@<TRIPOS>MOLECULE
*****
 40 46 0 0 0
SMALL
GASTEIGER

@<TRIPOS>ATOM
      1 C           4.7392   -0.8952   -0.3719 C.3     1  UNL1        0.0000
      2 C           6.1796   -0.3723   -0.3863 C.2     1  UNL1        0.0000
      3 C           6.2127    0.9779   -0.3230 C.2     1  UNL1        0.0000
      4 C           4.8868    1.4721   -0.2633 C.ar    1  UNL1        0.0000
      5 C           4.3104    2.7015   -0.1892 C.ar    1  UNL1        0.0000
      6 S           2.5949    2.5227   -0.1510 S.2     1  UNL1        0.0000
      7 C           2.6659    0.7867   -0.2354 C.ar    1  UNL1        0.0000
      8 C           3.9782    0.3868   -0.2902 C.ar    1  UNL1        0.0000
      9 C           1.4774   -0.0215   -0.2414 C.ar    1  UNL1        0.0000
     10 C           1.3316   -1.3942   -0.3027 C.ar    1  UNL1        0.0000
     11 C          -0.0470   -1.6207   -0.2756 C.ar    1  UNL1        0.0000
     12 C          -0.7135   -2.8817   -0.3171 C.ar    1  UNL1        0.0000
     13 N          -0.0634   -4.0333   -0.3895 N.ar    1  UNL1        0.0000
     14 S          -1.3147   -5.1469   -0.4077 S.2     1  UNL1        0.0000
     15 N          -2.6386   -4.1258   -0.3228 N.ar    1  UNL1        0.0000
     16 C          -2.1625   -2.8604   -0.2761 C.ar    1  UNL1        0.0000
     17 C          -2.9096   -1.6535   -0.1984 C.ar    1  UNL1        0.0000
     18 C          -4.3819   -1.7201   -0.1606 C.ar    1  UNL1        0.0000
     19 C          -5.1229   -0.6035   -0.0873 C.ar    1  UNL1        0.0000
     20 C          -4.4864    0.6951   -0.0439 C.ar    1  UNL1        0.0000
     21 C          -5.1779    1.8480    0.0293 C.2     1  UNL1        0.0000
     22 SI         -4.0406    3.3159    0.0660 Si      1  UNL1        0.0000
     23 C          -2.5912    2.1183   -0.0305 C.2     1  UNL1        0.0000
     24 C          -3.0025    0.8330   -0.0788 C.ar    1  UNL1        0.0000
     25 C          -2.1920   -0.4125   -0.1597 C.ar    1  UNL1        0.0000
     26 C          -0.7778   -0.4468   -0.2000 C.ar    1  UNL1        0.0000
     27 N           0.2053    0.5224   -0.1807 N.ar    1  UNL1        0.0000
     28 H           4.5188   -1.4424   -1.2927 H       1  UNL1        0.0000
     29 H           4.5678   -1.5279    0.5034 H       1  UNL1        0.0000
     30 H           7.0450   -1.0158   -0.4405 H       1  UNL1        0.0000
     31 H           7.1031    1.5906   -0.3182 H       1  UNL1        0.0000
     32 H           4.7716    3.6781   -0.1553 H       1  UNL1        0.0000
     33 H           2.1186   -2.1335   -0.3594 H       1  UNL1        0.0000
     34 H          -4.8574   -2.6957   -0.1933 H       1  UNL1        0.0000
     35 H          -6.2063   -0.6622   -0.0598 H       1  UNL1        0.0000
     36 H          -6.2498    1.9635    0.0645 H       1  UNL1        0.0000
     37 H          -4.1416    4.1587   -1.1492 H       1  UNL1        0.0000
     38 H          -4.0714    4.0415    1.3583 H       1  UNL1        0.0000
     39 H          -1.6059    2.5383   -0.0388 H       1  UNL1        0.0000
     40 H           0.0478    1.5149   -0.1288 H       1  UNL1        0.0000
@<TRIPOS>BOND
     1     1     2    1
     2     2     3    2
     3     3     4    1
     4     4     5   ar
     5     5     6   ar
     6     6     7   ar
     7     7     8   ar
     8     7     9    1
     9     9    10   ar
    10    10    11   ar
    11    11    12   ar
    12    12    13   ar
    13    13    14   ar
    14    14    15   ar
    15    15    16   ar
    16    16    17   ar
    17    17    18   ar
    18    18    19   ar
    19    19    20   ar
    20    20    21    2
    21    21    22    1
    22    22    23    1
    23    23    24    2
    24    24    25   ar
    25    25    26   ar
    26    26    27   ar
    27     8     1    1
    28    27     9   ar
    29     8     4   ar
    30    26    11   ar
    31    16    12   ar
    32    25    17   ar
    33    24    20   ar
    34     1    28    1
    35     1    29    1
    36     2    30    1
    37     3    31    1
    38     5    32    1
    39    10    33    1
    40    18    34    1
    41    19    35    1
    42    21    36    1
    43    22    37    1
    44    22    38    1
    45    23    39    1
    46    27    40    1
