@<TRIPOS>MOLECULE
*****
 33 38 0 0 0
SMALL
GASTEIGER

@<TRIPOS>ATOM
      1 C          -4.0062   -1.1170    0.9013 C.3     1  UNL1       -0.0075
      2 C          -5.5304   -1.2250    0.9936 C.2     1  UNL1       -0.0791
      3 C          -6.1338   -0.2260    0.3122 C.2     1  UNL1       -0.0574
      4 C          -5.1437    0.6020   -0.2700 C.ar    1  UNL1       -0.0142
      5 C          -5.1515    1.7205   -1.0407 C.ar    1  UNL1       -0.0163
      6 S          -3.5291    2.1842   -1.3793 S.2     1  UNL1       -0.0953
      7 C          -2.8335    0.8620   -0.4763 C.ar    1  UNL1        0.0300
      8 C          -3.8566    0.1072    0.0559 C.ar    1  UNL1       -0.0212
      9 C          -1.4007    0.6615   -0.3550 C.ar    1  UNL1        0.0273
     10 C          -0.7523   -0.3481    0.3335 C.ar    1  UNL1       -0.0386
     11 C           0.6807   -0.2777    0.2678 C.ar    1  UNL1       -0.0091
     12 C           1.6680   -1.1077    0.8283 C.ar    1  UNL1       -0.0390
     13 C           3.0296   -0.8510    0.6350 C.ar    1  UNL1        0.0241
     14 S           4.3630   -1.7796    1.2594 S.2     1  UNL1       -0.0849
     15 C           5.4874   -0.7066    0.5059 C.ar    1  UNL1        0.0584
     16 C           6.8820   -0.5076    0.3519 C.ar    1  UNL1       -0.0095
     17 C           6.9608    0.6201   -0.4266 C.ar    1  UNL1        0.0937
     18 O           5.7394    1.1191   -0.7560 O.2     1  UNL1       -0.4618
     19 C           4.8422    0.2767   -0.1644 C.ar    1  UNL1        0.1495
     20 C           3.4297    0.2475   -0.1273 C.ar    1  UNL1        0.0332
     21 C           2.4499    1.0774   -0.6878 C.ar    1  UNL1       -0.0356
     22 C           1.0926    0.8130   -0.4892 C.ar    1  UNL1        0.0207
     23 S          -0.2463    1.7016   -1.0859 S.2     1  UNL1       -0.0877
     24 H          -3.5883   -2.0022    0.4138 H       1  UNL1        0.0356
     25 H          -3.5710   -0.9812    1.8953 H       1  UNL1        0.0356
     26 H          -6.0413   -2.0055    1.5374 H       1  UNL1        0.0575
     27 H          -7.2001   -0.0744    0.2202 H       1  UNL1        0.0621
     28 H          -5.9867    2.2896   -1.4231 H       1  UNL1        0.0699
     29 H          -1.2669   -1.1279    0.8774 H       1  UNL1        0.0635
     30 H           1.3636   -1.9660    1.4239 H       1  UNL1        0.0635
     31 H           7.6967   -1.0953    0.7473 H       1  UNL1        0.0660
     32 H           7.7970    1.1808   -0.8233 H       1  UNL1        0.1030
     33 H           2.7558    1.9357   -1.2832 H       1  UNL1        0.0636
@<TRIPOS>BOND
     1     1     2    1
     2     2     3    2
     3     3     4    1
     4     4     5   ar
     5     5     6   ar
     6     6     7   ar
     7     7     8   ar
     8     7     9    1
     9     9    10   ar
    10    10    11   ar
    11    11    12   ar
    12    12    13   ar
    13    13    14   ar
    14    14    15   ar
    15    15    16   ar
    16    16    17   ar
    17    17    18   ar
    18    18    19   ar
    19    19    20   ar
    20    20    21   ar
    21    21    22   ar
    22    22    23   ar
    23     8     1    1
    24    23     9   ar
    25     8     4   ar
    26    22    11   ar
    27    20    13   ar
    28    19    15   ar
    29     1    24    1
    30     1    25    1
    31     2    26    1
    32     3    27    1
    33     5    28    1
    34    10    29    1
    35    12    30    1
    36    16    31    1
    37    17    32    1
    38    21    33    1
