@<TRIPOS>MOLECULE
*****
 44 50 0 0 0
SMALL
GASTEIGER

@<TRIPOS>ATOM
      1 C          -5.3075    1.2651    0.5268 C.3     1  UNL1       -0.0075
      2 C          -6.8161    1.5099    0.6021 C.2     1  UNL1       -0.0791
      3 C          -7.5076    0.3705    0.3803 C.2     1  UNL1       -0.0574
      4 C          -6.5958   -0.6877    0.1484 C.ar    1  UNL1       -0.0142
      5 C          -6.7073   -2.0140   -0.1214 C.ar    1  UNL1       -0.0163
      6 S          -5.1347   -2.6922   -0.2865 S.2     1  UNL1       -0.0942
      7 C          -4.3154   -1.1746    0.0107 C.ar    1  UNL1        0.0416
      8 C          -5.2676   -0.1993    0.2262 C.ar    1  UNL1       -0.0203
      9 C          -2.8405   -1.1180   -0.0021 C.ar    1  UNL1        0.0784
     10 C          -2.1305    0.0530    0.2245 C.ar    1  UNL1       -0.0274
     11 C          -0.7254    0.0383    0.1983 C.ar    1  UNL1       -0.0138
     12 C          -0.0049    1.2081    0.4245 C.ar    1  UNL1       -0.0533
     13 C           1.3924    1.2039    0.4007 C.ar    1  UNL1       -0.0527
     14 C           2.1501    0.0408    0.1514 C.ar    1  UNL1       -0.0060
     15 C           1.4167   -1.1474   -0.0784 C.ar    1  UNL1        0.0100
     16 C           2.1794   -2.2938   -0.3244 C.ar    1  UNL1        0.0366
     17 N           3.5290   -2.3724   -0.3627 N.ar    1  UNL1       -0.2543
     18 C           4.2428   -1.2710   -0.1502 C.ar    1  UNL1        0.0722
     19 C           5.6511   -1.4610   -0.2122 C.ar    1  UNL1       -0.0351
     20 C           6.6379   -0.4729   -0.0272 C.ar    1  UNL1       -0.0506
     21 C           6.0342    0.7393    0.2297 C.ar    1  UNL1        0.0001
     22 C           6.7175    1.9045    0.4559 C.ar    1  UNL1        0.0094
     23 N           5.7729    2.8764    0.6695 N.ar    1  UNL1       -0.3659
     24 C           4.5040    2.3342    0.5800 C.ar    1  UNL1        0.0101
     25 C           4.6255    0.9907    0.3042 C.ar    1  UNL1        0.0091
     26 C           3.6055   -0.0098    0.1171 C.ar    1  UNL1        0.0172
     27 C          -0.0269   -1.1535   -0.0558 C.ar    1  UNL1        0.0094
     28 C          -0.8474   -2.2737   -0.2703 C.ar    1  UNL1        0.0366
     29 N          -2.2030   -2.2809   -0.2493 N.ar    1  UNL1       -0.2538
     30 H          -4.8339    1.4971    1.4849 H       1  UNL1        0.0356
     31 H          -4.8634    1.8581   -0.2776 H       1  UNL1        0.0356
     32 H          -7.2555    2.4748    0.8071 H       1  UNL1        0.0575
     33 H          -8.5839    0.2710    0.3779 H       1  UNL1        0.0621
     34 H          -7.5918   -2.6246   -0.2317 H       1  UNL1        0.0699
     35 H          -2.6482    0.9828    0.4222 H       1  UNL1        0.0645
     36 H          -0.5174    2.1474    0.6242 H       1  UNL1        0.0624
     37 H           1.8728    2.1539    0.5861 H       1  UNL1        0.0624
     38 H           1.7142   -3.2576   -0.5130 H       1  UNL1        0.0836
     39 H           5.9995   -2.4743   -0.4243 H       1  UNL1        0.0639
     40 H           7.6987   -0.6666   -0.0841 H       1  UNL1        0.0625
     41 H           7.7735    2.1374    0.4859 H       1  UNL1        0.0813
     42 H           5.9738    3.8490    0.8644 H       1  UNL1        0.1648
     43 H           3.6672    2.9954    0.7286 H       1  UNL1        0.0813
     44 H          -0.4338   -3.2564   -0.4772 H       1  UNL1        0.0836
@<TRIPOS>BOND
     1     1     2    1
     2     2     3    2
     3     3     4    1
     4     4     5   ar
     5     5     6   ar
     6     6     7   ar
     7     7     8   ar
     8     7     9    1
     9     9    10   ar
    10    10    11   ar
    11    11    12   ar
    12    12    13   ar
    13    13    14   ar
    14    14    15   ar
    15    15    16   ar
    16    16    17   ar
    17    17    18   ar
    18    18    19   ar
    19    19    20   ar
    20    20    21   ar
    21    21    22   ar
    22    22    23   ar
    23    23    24   ar
    24    24    25   ar
    25    25    26   ar
    26    15    27   ar
    27    27    28   ar
    28    28    29   ar
    29     8     1    1
    30    29     9   ar
    31     8     4   ar
    32    27    11   ar
    33    26    14   ar
    34    26    18   ar
    35    25    21   ar
    36     1    30    1
    37     1    31    1
    38     2    32    1
    39     3    33    1
    40     5    34    1
    41    10    35    1
    42    12    36    1
    43    13    37    1
    44    16    38    1
    45    19    39    1
    46    20    40    1
    47    22    41    1
    48    23    42    1
    49    24    43    1
    50    28    44    1
