@<TRIPOS>MOLECULE
*****
 47 54 0 0 0
SMALL
GASTEIGER

@<TRIPOS>ATOM
      1 SI          2.5456    1.3212    4.2105 Si      1  UNL1        0.0000
      2 C           3.6839    1.1110    2.7596 C.2     1  UNL1        0.0000
      3 C           3.0125    0.6945    1.6696 C.ar    1  UNL1        0.0000
      4 C           3.5546    0.4322    0.3878 C.ar    1  UNL1        0.0000
      5 C           2.7608    0.0041   -0.6720 C.ar    1  UNL1        0.0000
      6 N           3.5674   -0.1615   -1.7806 N.ar    1  UNL1        0.0000
      7 C           4.8570    0.1555   -1.4266 C.ar    1  UNL1        0.0000
      8 C           6.1752    0.2454   -1.9182 C.ar    1  UNL1        0.0000
      9 C           6.8830    0.6696   -0.8149 C.ar    1  UNL1        0.0000
     10 O           6.1016    0.8407    0.2913 O.2     1  UNL1        0.0000
     11 C           4.8507    0.5124   -0.1241 C.ar    1  UNL1        0.0000
     12 C           1.3209   -0.2057   -0.5430 C.ar    1  UNL1        0.0000
     13 C           0.4198   -0.6362   -1.5226 C.ar    1  UNL1        0.0000
     14 C           0.6333   -0.9800   -2.8336 C.ar    1  UNL1        0.0000
     15 O          -0.5423   -1.3576   -3.4221 O.2     1  UNL1        0.0000
     16 C          -1.5234   -1.2579   -2.4800 C.ar    1  UNL1        0.0000
     17 C          -0.9865   -0.8113   -1.2998 C.ar    1  UNL1        0.0000
     18 C          -1.6580   -0.5837   -0.0957 C.ar    1  UNL1        0.0000
     19 C          -0.7519   -0.1569    0.9121 C.ar    1  UNL1        0.0000
     20 C           0.6681    0.0343    0.7244 C.ar    1  UNL1        0.0000
     21 C           1.5432    0.4977    1.8586 C.ar    1  UNL1        0.0000
     22 C           1.1254    0.7758    3.1137 C.2     1  UNL1        0.0000
     23 C          -3.0732   -0.7776    0.1135 C.ar    1  UNL1        0.0000
     24 C          -3.6334   -1.7847    0.9450 C.ar    1  UNL1        0.0000
     25 C          -5.0458   -1.9760    1.1563 C.ar    1  UNL1        0.0000
     26 C          -6.0526   -1.1786    0.5667 C.ar    1  UNL1        0.0000
     27 C          -5.4862   -0.1945   -0.2316 C.ar    1  UNL1        0.0000
     28 C          -6.1719    0.7589   -0.9384 C.ar    1  UNL1        0.0000
     29 N          -5.2297    1.5387   -1.5757 N.ar    1  UNL1        0.0000
     30 C          -3.9583    1.0910   -1.2806 C.ar    1  UNL1        0.0000
     31 C          -4.0893    0.0032   -0.4509 C.ar    1  UNL1        0.0000
     32 H           2.4062    2.7342    4.6380 H       1  UNL1        0.0000
     33 H           2.8095    0.3503    5.2998 H       1  UNL1        0.0000
     34 H           4.7422    1.3101    2.8282 H       1  UNL1        0.0000
     35 H           3.3121   -0.4588   -2.7108 H       1  UNL1        0.0000
     36 H           6.5589    0.0393   -2.9056 H       1  UNL1        0.0000
     37 H           7.9302    0.8915   -0.6583 H       1  UNL1        0.0000
     38 H           1.4839   -1.0278   -3.4933 H       1  UNL1        0.0000
     39 H          -2.5163   -1.5339   -2.8074 H       1  UNL1        0.0000
     40 H          -1.1813    0.0457    1.8927 H       1  UNL1        0.0000
     41 H           0.1308    0.7218    3.5222 H       1  UNL1        0.0000
     42 H          -2.9549   -2.4702    1.4559 H       1  UNL1        0.0000
     43 H          -5.3538   -2.7894    1.8143 H       1  UNL1        0.0000
     44 H          -7.1092   -1.3282    0.7333 H       1  UNL1        0.0000
     45 H          -7.2273    0.9666   -1.0491 H       1  UNL1        0.0000
     46 H          -5.4392    2.3310   -2.1690 H       1  UNL1        0.0000
     47 H          -3.0922    1.5938   -1.6897 H       1  UNL1        0.0000
@<TRIPOS>BOND
     1     1     2    1
     2     2     3    2
     3     3     4   ar
     4     4     5   ar
     5     5     6   ar
     6     6     7   ar
     7     7     8   ar
     8     8     9   ar
     9     9    10   ar
    10    10    11   ar
    11     5    12   ar
    12    12    13   ar
    13    13    14   ar
    14    14    15   ar
    15    15    16   ar
    16    16    17   ar
    17    17    18   ar
    18    18    19   ar
    19    19    20   ar
    20    20    21   ar
    21    21    22    2
    22    18    23    1
    23    23    24   ar
    24    24    25   ar
    25    25    26   ar
    26    26    27   ar
    27    27    28   ar
    28    28    29   ar
    29    29    30   ar
    30    30    31   ar
    31    22     1    1
    32    31    23   ar
    33    21     3   ar
    34    31    27   ar
    35    11     4   ar
    36    20    12   ar
    37    11     7   ar
    38    17    13   ar
    39     1    32    1
    40     1    33    1
    41     2    34    1
    42     6    35    1
    43     8    36    1
    44     9    37    1
    45    14    38    1
    46    16    39    1
    47    19    40    1
    48    22    41    1
    49    24    42    1
    50    25    43    1
    51    26    44    1
    52    28    45    1
    53    29    46    1
    54    30    47    1
