@<TRIPOS>MOLECULE
*****
 41 47 0 0 0
SMALL
GASTEIGER

@<TRIPOS>ATOM
      1 C          -5.0230   -1.2145    0.5783 C.3     1  UNL1       -0.0075
      2 C          -6.5478   -1.0887    0.6416 C.2     1  UNL1       -0.0791
      3 C          -6.9387    0.1888    0.4550 C.2     1  UNL1       -0.0574
      4 C          -5.7942    0.9985    0.2602 C.ar    1  UNL1       -0.0142
      5 C          -5.5966    2.3205    0.0340 C.ar    1  UNL1       -0.0163
      6 S          -3.9170    2.6167   -0.1065 S.2     1  UNL1       -0.0957
      7 C          -3.4515    0.9348    0.1420 C.ar    1  UNL1        0.0255
      8 C          -4.6149    0.2070    0.3244 C.ar    1  UNL1       -0.0217
      9 C          -2.0080    0.5800    0.1206 C.ar    1  UNL1        0.0177
     10 C          -0.9713    1.5409   -0.0926 C.ar    1  UNL1       -0.0435
     11 C           0.4259    1.2768   -0.1261 C.ar    1  UNL1       -0.0131
     12 C           1.3468    2.3098   -0.3446 C.ar    1  UNL1       -0.0532
     13 C           2.7303    2.0720   -0.3817 C.ar    1  UNL1       -0.0514
     14 C           3.2219    0.7648   -0.1958 C.ar    1  UNL1        0.0081
     15 C           4.5313    0.1859   -0.1732 C.ar    1  UNL1        0.0074
     16 C           5.8349    0.7017   -0.3284 C.ar    1  UNL1       -0.0520
     17 C           6.9320   -0.1637   -0.2475 C.ar    1  UNL1       -0.0611
     18 C           6.7468   -1.5247   -0.0158 C.ar    1  UNL1       -0.0598
     19 C           5.4654   -2.0609    0.1415 C.ar    1  UNL1       -0.0378
     20 C           4.3802   -1.1809    0.0576 C.ar    1  UNL1        0.0475
     21 N           3.0329   -1.4221    0.1705 N.ar    1  UNL1       -0.3536
     22 C           2.3061   -0.2621    0.0215 C.ar    1  UNL1        0.0574
     23 C           0.9198   -0.0364    0.0606 C.ar    1  UNL1        0.0342
     24 C          -0.0349   -1.0651    0.2802 C.ar    1  UNL1        0.1101
     25 N           0.2422   -2.3696    0.4773 N.ar    1  UNL1       -0.1901
     26 S          -1.2049   -3.1386    0.6817 S.2     1  UNL1        0.1165
     27 N          -2.2459   -1.8692    0.5321 N.ar    1  UNL1       -0.1901
     28 C          -1.5282   -0.7547    0.3115 C.ar    1  UNL1        0.1087
     29 H          -4.7451   -1.8755   -0.2471 H       1  UNL1        0.0356
     30 H          -4.6472   -1.5851    1.5358 H       1  UNL1        0.0356
     31 H          -7.2067   -1.9262    0.8142 H       1  UNL1        0.0575
     32 H          -7.9587    0.5460    0.4528 H       1  UNL1        0.0621
     33 H          -6.3197    3.1185   -0.0562 H       1  UNL1        0.0699
     34 H          -1.2554    2.5832   -0.2466 H       1  UNL1        0.0631
     35 H           1.0012    3.3321   -0.4921 H       1  UNL1        0.0624
     36 H           3.4179    2.8955   -0.5533 H       1  UNL1        0.0624
     37 H           5.9891    1.7611   -0.5093 H       1  UNL1        0.0624
     38 H           7.9375    0.2322   -0.3669 H       1  UNL1        0.0618
     39 H           7.6116   -2.1816    0.0438 H       1  UNL1        0.0618
     40 H           5.3240   -3.1216    0.3219 H       1  UNL1        0.0638
     41 H           2.6119   -2.3261    0.3407 H       1  UNL1        0.1659
@<TRIPOS>BOND
     1     1     2    1
     2     2     3    2
     3     3     4    1
     4     4     5   ar
     5     5     6   ar
     6     6     7   ar
     7     7     8   ar
     8     7     9    1
     9     9    10   ar
    10    10    11   ar
    11    11    12   ar
    12    12    13   ar
    13    13    14   ar
    14    14    15   ar
    15    15    16   ar
    16    16    17   ar
    17    17    18   ar
    18    18    19   ar
    19    19    20   ar
    20    20    21   ar
    21    21    22   ar
    22    22    23   ar
    23    23    24   ar
    24    24    25   ar
    25    25    26   ar
    26    26    27   ar
    27    27    28   ar
    28     8     1    1
    29    28     9   ar
    30     8     4   ar
    31    23    11   ar
    32    28    24   ar
    33    22    14   ar
    34    20    15   ar
    35     1    29    1
    36     1    30    1
    37     2    31    1
    38     3    32    1
    39     5    33    1
    40    10    34    1
    41    12    35    1
    42    13    36    1
    43    16    37    1
    44    17    38    1
    45    18    39    1
    46    19    40    1
    47    21    41    1
