@<TRIPOS>MOLECULE
*****
 46 53 0 0 0
SMALL
GASTEIGER

@<TRIPOS>ATOM
      1 C          -5.1974   -1.7423   -0.1520 C.3     1  UNL1       -0.0075
      2 C          -6.7020   -1.9113   -0.3950 C.2     1  UNL1       -0.0791
      3 C          -7.2710   -0.7487   -0.7867 C.2     1  UNL1       -0.0574
      4 C          -6.2752    0.2561   -0.8531 C.ar    1  UNL1       -0.0142
      5 C          -6.2430    1.5757   -1.1815 C.ar    1  UNL1       -0.0163
      6 S          -4.6233    2.1580   -1.0437 S.2     1  UNL1       -0.0957
      7 C          -4.0016    0.6144   -0.5444 C.ar    1  UNL1        0.0255
      8 C          -5.0265   -0.2969   -0.4842 C.ar    1  UNL1       -0.0217
      9 C          -2.5789    0.4658   -0.2740 C.ar    1  UNL1        0.0177
     10 C          -1.5856    0.7582   -1.2200 C.ar    1  UNL1       -0.0436
     11 C          -0.1922    0.6197   -0.9902 C.ar    1  UNL1       -0.0145
     12 C           0.6478    0.8756   -2.0661 C.ar    1  UNL1       -0.0533
     13 C           2.0356    0.7232   -1.9785 C.ar    1  UNL1       -0.0528
     14 C           2.7115    0.3818   -0.7944 C.ar    1  UNL1       -0.0074
     15 C           4.1938    0.2404   -0.7976 C.ar    1  UNL1        0.0086
     16 C           5.0125    0.3158   -1.9432 C.ar    1  UNL1        0.0359
     17 N           6.3693    0.1935   -1.9985 N.ar    1  UNL1       -0.2626
     18 C           7.0092   -0.0242   -0.8374 C.ar    1  UNL1        0.0282
     19 C           6.3608   -0.1247    0.3725 C.ar    1  UNL1       -0.0352
     20 C           4.9542    0.0062    0.3798 C.ar    1  UNL1       -0.0053
     21 C           4.1309   -0.0342    1.5169 C.ar    1  UNL1        0.0078
     22 C           4.5692   -0.1431    2.8163 C.ar    1  UNL1        0.0100
     23 N           3.4639   -0.0419    3.6210 N.ar    1  UNL1       -0.3659
     24 C           2.3428    0.1498    2.8466 C.ar    1  UNL1        0.0100
     25 C           2.7029    0.0678    1.5214 C.ar    1  UNL1        0.0084
     26 C           1.8639    0.2092    0.3702 C.ar    1  UNL1        0.0017
     27 C           0.3931    0.2211    0.2505 C.ar    1  UNL1        0.0187
     28 C          -0.6144   -0.1892    1.2236 C.ar    1  UNL1        0.1088
     29 N          -0.3961   -0.7850    2.4091 N.ar    1  UNL1       -0.1901
     30 S          -1.8475   -1.0303    3.1472 S.2     1  UNL1        0.1165
     31 N          -2.8681   -0.4506    1.9916 N.ar    1  UNL1       -0.1901
     32 C          -2.1087   -0.0465    0.9566 C.ar    1  UNL1        0.1087
     33 H          -4.9555   -1.9606    0.8909 H       1  UNL1        0.0356
     34 H          -4.6209   -2.3848   -0.8233 H       1  UNL1        0.0356
     35 H          -7.2241   -2.8464   -0.2581 H       1  UNL1        0.0575
     36 H          -8.3166   -0.6002   -1.0161 H       1  UNL1        0.0621
     37 H          -7.0457    2.2294   -1.4910 H       1  UNL1        0.0699
     38 H          -1.9215    1.0972   -2.2034 H       1  UNL1        0.0630
     39 H           0.2375    1.1735   -3.0317 H       1  UNL1        0.0624
     40 H           2.5805    0.9205   -2.8987 H       1  UNL1        0.0624
     41 H           4.5903    0.4755   -2.9307 H       1  UNL1        0.0836
     42 H           8.0886   -0.1169   -0.9083 H       1  UNL1        0.0830
     43 H           6.9245   -0.2972    1.2805 H       1  UNL1        0.0639
     44 H           5.5528   -0.2473    3.2522 H       1  UNL1        0.0813
     45 H           3.4729   -0.0503    4.6328 H       1  UNL1        0.1648
     46 H           1.4071    0.3445    3.3447 H       1  UNL1        0.0813
@<TRIPOS>BOND
     1     1     2    1
     2     2     3    2
     3     3     4    1
     4     4     5   ar
     5     5     6   ar
     6     6     7   ar
     7     7     8   ar
     8     7     9    1
     9     9    10   ar
    10    10    11   ar
    11    11    12   ar
    12    12    13   ar
    13    13    14   ar
    14    14    15   ar
    15    15    16   ar
    16    16    17   ar
    17    17    18   ar
    18    18    19   ar
    19    19    20   ar
    20    20    21   ar
    21    21    22   ar
    22    22    23   ar
    23    23    24   ar
    24    24    25   ar
    25    25    26   ar
    26    26    27   ar
    27    27    28   ar
    28    28    29   ar
    29    29    30   ar
    30    30    31   ar
    31    31    32   ar
    32     8     1    1
    33    32     9   ar
    34     8     4   ar
    35    27    11   ar
    36    32    28   ar
    37    26    14   ar
    38    20    15   ar
    39    25    21   ar
    40     1    33    1
    41     1    34    1
    42     2    35    1
    43     3    36    1
    44     5    37    1
    45    10    38    1
    46    12    39    1
    47    13    40    1
    48    16    41    1
    49    18    42    1
    50    19    43    1
    51    22    44    1
    52    23    45    1
    53    24    46    1
