@<TRIPOS>MOLECULE
*****
 48 55 0 0 0
SMALL
GASTEIGER

@<TRIPOS>ATOM
      1 C           4.9953    0.4745    1.5922 C.3     1  UNL1        0.0000
      2 C           6.4991    0.7422    1.7264 C.2     1  UNL1        0.0000
      3 C           7.1263    0.6393    0.5321 C.2     1  UNL1        0.0000
      4 C           6.1751    0.3137   -0.4654 C.ar    1  UNL1        0.0000
      5 C           6.2024    0.0858   -1.8059 C.ar    1  UNL1        0.0000
      6 S           4.6051   -0.2737   -2.3581 S.2     1  UNL1        0.0000
      7 C           3.9059   -0.1037   -0.7712 C.ar    1  UNL1        0.0000
      8 C           4.8970    0.2085    0.1276 C.ar    1  UNL1        0.0000
      9 C           2.5067   -0.3069   -0.5556 C.ar    1  UNL1        0.0000
     10 C           1.6751    0.6698   -0.9725 C.ar    1  UNL1        0.0000
     11 C           0.2114    0.6098   -0.7834 C.ar    1  UNL1        0.0000
     12 C          -0.5640    1.6514   -1.2514 C.ar    1  UNL1        0.0000
     13 N          -1.9012    1.7039   -1.1251 N.ar    1  UNL1        0.0000
     14 C          -2.5455    0.6880   -0.5076 C.ar    1  UNL1        0.0000
     15 C          -1.8567   -0.4353    0.0135 C.ar    1  UNL1        0.0000
     16 N          -2.5259   -1.4397    0.6308 N.ar    1  UNL1        0.0000
     17 C          -3.8684   -1.3840    0.7564 C.ar    1  UNL1        0.0000
     18 C          -4.6603   -0.3525    0.2954 C.ar    1  UNL1        0.0000
     19 C          -6.0872   -0.4057    0.4894 C.ar    1  UNL1        0.0000
     20 C          -6.9908    0.5848    0.0638 C.ar    1  UNL1        0.0000
     21 C          -6.3332    1.6298   -0.5723 C.ar    1  UNL1        0.0000
     22 C          -7.0225    2.7084   -1.0701 C.ar    1  UNL1        0.0000
     23 S          -5.9619    3.8398   -1.7995 S.2     1  UNL1        0.0000
     24 C          -4.5817    2.8778   -1.4448 C.ar    1  UNL1        0.0000
     25 C          -4.9042    1.7135   -0.7831 C.ar    1  UNL1        0.0000
     26 C          -3.9640    0.7127   -0.3562 C.ar    1  UNL1        0.0000
     27 C          -0.4487   -0.4608   -0.1371 C.ar    1  UNL1        0.0000
     28 C           0.4495   -1.5631    0.3415 C.ar    1  UNL1        0.0000
     29 C           0.0870   -2.7005    0.9735 C.2     1  UNL1        0.0000
     30 SI          1.5399   -3.7970    1.3654 Si      1  UNL1        0.0000
     31 C           2.6300   -2.5183    0.5731 C.2     1  UNL1        0.0000
     32 C           1.9196   -1.4639    0.1182 C.ar    1  UNL1        0.0000
     33 H           4.4162    1.3541    1.8863 H       1  UNL1        0.0000
     34 H           4.7023   -0.3954    2.1863 H       1  UNL1        0.0000
     35 H           6.9787    0.9809    2.6639 H       1  UNL1        0.0000
     36 H           8.1833    0.7808    0.3567 H       1  UNL1        0.0000
     37 H           7.0369    0.1010   -2.4920 H       1  UNL1        0.0000
     38 H           2.0699    1.5562   -1.4640 H       1  UNL1        0.0000
     39 H          -0.1268    2.5074   -1.7592 H       1  UNL1        0.0000
     40 H          -4.2974   -2.2436    1.2667 H       1  UNL1        0.0000
     41 H          -6.5117   -1.2717    1.0024 H       1  UNL1        0.0000
     42 H          -8.0586    0.5162    0.2243 H       1  UNL1        0.0000
     43 H          -8.0861    2.9029   -1.0509 H       1  UNL1        0.0000
     44 H          -3.6143    3.2449   -1.7546 H       1  UNL1        0.0000
     45 H          -0.9019   -3.0234    1.2514 H       1  UNL1        0.0000
     46 H           1.5173   -5.0735    0.6113 H       1  UNL1        0.0000
     47 H           1.7861   -3.9210    2.8228 H       1  UNL1        0.0000
     48 H           3.6970   -2.6642    0.5083 H       1  UNL1        0.0000
@<TRIPOS>BOND
     1     1     2    1
     2     2     3    2
     3     3     4    1
     4     4     5   ar
     5     5     6   ar
     6     6     7   ar
     7     7     8   ar
     8     7     9    1
     9     9    10   ar
    10    10    11   ar
    11    11    12   ar
    12    12    13   ar
    13    13    14   ar
    14    14    15   ar
    15    15    16   ar
    16    16    17   ar
    17    17    18   ar
    18    18    19   ar
    19    19    20   ar
    20    20    21   ar
    21    21    22   ar
    22    22    23   ar
    23    23    24   ar
    24    24    25   ar
    25    25    26   ar
    26    15    27   ar
    27    27    28   ar
    28    28    29    2
    29    29    30    1
    30    30    31    1
    31    31    32    2
    32     8     1    1
    33    32     9   ar
    34     8     4   ar
    35    27    11   ar
    36    32    28   ar
    37    26    14   ar
    38    26    18   ar
    39    25    21   ar
    40     1    33    1
    41     1    34    1
    42     2    35    1
    43     3    36    1
    44     5    37    1
    45    10    38    1
    46    12    39    1
    47    17    40    1
    48    19    41    1
    49    20    42    1
    50    22    43    1
    51    24    44    1
    52    29    45    1
    53    30    46    1
    54    30    47    1
    55    31    48    1
