@<TRIPOS>MOLECULE
*****
 36 41 0 0 0
SMALL
GASTEIGER

@<TRIPOS>ATOM
      1 C           4.5307   -1.4477    0.8417 C.3     1  UNL1       -0.0075
      2 C           6.0336   -1.4680    1.1321 C.2     1  UNL1       -0.0791
      3 C           6.5252   -0.2155    1.2575 C.2     1  UNL1       -0.0574
      4 C           5.4737    0.7154    1.0763 C.ar    1  UNL1       -0.0142
      5 C           5.3702    2.0698    1.0888 C.ar    1  UNL1       -0.0163
      6 S           3.7358    2.5140    0.7830 S.2     1  UNL1       -0.0953
      7 C           3.1869    0.8637    0.6369 C.ar    1  UNL1        0.0300
      8 C           4.2629    0.0236    0.8252 C.ar    1  UNL1       -0.0212
      9 C           1.8049    0.5170    0.3609 C.ar    1  UNL1        0.0288
     10 C           1.2732   -0.7517    0.2294 C.ar    1  UNL1       -0.0204
     11 C          -0.1253   -0.7604   -0.0424 C.ar    1  UNL1        0.0793
     12 N          -0.8685   -1.8835   -0.2117 N.ar    1  UNL1       -0.2538
     13 C          -2.1814   -1.6886   -0.4624 C.ar    1  UNL1        0.0367
     14 C          -2.8459   -0.4584   -0.5641 C.ar    1  UNL1        0.0134
     15 C          -2.0480    0.6809   -0.3838 C.ar    1  UNL1        0.0181
     16 C          -2.6592    1.9322   -0.4747 C.ar    1  UNL1        0.0372
     17 N          -3.9746    2.1146   -0.7261 N.ar    1  UNL1       -0.2542
     18 C          -4.7468    1.0322   -0.9002 C.ar    1  UNL1        0.0745
     19 C          -6.0902    1.2318   -1.1566 C.ar    1  UNL1       -0.0176
     20 C          -6.9193    0.1428   -1.3419 C.ar    1  UNL1        0.0296
     21 N          -6.4913   -1.1297   -1.2871 N.ar    1  UNL1       -0.2625
     22 C          -5.1757   -1.3112   -1.0356 C.ar    1  UNL1        0.0373
     23 C          -4.2431   -0.2808   -0.8316 C.ar    1  UNL1        0.0277
     24 C          -0.6599    0.5218   -0.1177 C.ar    1  UNL1        0.0473
     25 S           0.5704    1.6932    0.1472 S.2     1  UNL1       -0.0855
     26 H           3.9794   -1.9531    1.6396 H       1  UNL1        0.0356
     27 H           4.3213   -1.9107   -0.1267 H       1  UNL1        0.0356
     28 H           6.6111   -2.3761    1.2221 H       1  UNL1        0.0575
     29 H           7.5540    0.0445    1.4629 H       1  UNL1        0.0621
     30 H           6.1316    2.8186    1.2542 H       1  UNL1        0.0699
     31 H           1.8431   -1.6650    0.3199 H       1  UNL1        0.0650
     32 H          -2.7193   -2.6260   -0.5877 H       1  UNL1        0.0836
     33 H          -2.1023    2.8568   -0.3459 H       1  UNL1        0.0836
     34 H          -6.4894    2.2388   -1.2118 H       1  UNL1        0.0654
     35 H          -7.9785    0.2729   -1.5447 H       1  UNL1        0.0830
     36 H          -4.8894   -2.3584   -1.0033 H       1  UNL1        0.0836
@<TRIPOS>BOND
     1     1     2    1
     2     2     3    2
     3     3     4    1
     4     4     5   ar
     5     5     6   ar
     6     6     7   ar
     7     7     8   ar
     8     7     9    1
     9     9    10   ar
    10    10    11   ar
    11    11    12   ar
    12    12    13   ar
    13    13    14   ar
    14    14    15   ar
    15    15    16   ar
    16    16    17   ar
    17    17    18   ar
    18    18    19   ar
    19    19    20   ar
    20    20    21   ar
    21    21    22   ar
    22    22    23   ar
    23    15    24   ar
    24    24    25   ar
    25     8     1    1
    26    25     9   ar
    27     8     4   ar
    28    24    11   ar
    29    23    14   ar
    30    23    18   ar
    31     1    26    1
    32     1    27    1
    33     2    28    1
    34     3    29    1
    35     5    30    1
    36    10    31    1
    37    13    32    1
    38    16    33    1
    39    19    34    1
    40    20    35    1
    41    22    36    1
