@<TRIPOS>MOLECULE
*****
 35 40 0 0 0
SMALL
GASTEIGER

@<TRIPOS>ATOM
      1 C           4.4384    1.2062   -0.4309 C.3     1  UNL1       -0.0075
      2 C           5.9671    1.1405   -0.4843 C.2     1  UNL1       -0.0791
      3 C           6.4151   -0.0973   -0.1786 C.2     1  UNL1       -0.0574
      4 C           5.3079   -0.9368    0.0941 C.ar    1  UNL1       -0.0142
      5 C           5.1465   -2.2391    0.4451 C.ar    1  UNL1       -0.0163
      6 S           3.4668   -2.5752    0.6116 S.2     1  UNL1       -0.0953
      7 C           2.9771   -0.9498    0.2056 C.ar    1  UNL1        0.0300
      8 C           4.1058   -0.1998   -0.0446 C.ar    1  UNL1       -0.0212
      9 C           1.5866   -0.5356    0.1608 C.ar    1  UNL1        0.0288
     10 C           1.1005    0.7198   -0.1496 C.ar    1  UNL1       -0.0204
     11 C          -0.3215    0.8126   -0.1075 C.ar    1  UNL1        0.0792
     12 N          -1.0185    1.9511   -0.3769 N.ar    1  UNL1       -0.2537
     13 C          -2.3589    1.8543   -0.2884 C.ar    1  UNL1        0.0395
     14 C          -3.0473    0.6943    0.0517 C.ar    1  UNL1        0.0441
     15 C          -4.4508    0.6357    0.1331 C.ar    1  UNL1        0.1439
     16 O          -5.3194    1.6632   -0.0988 O.2     1  UNL1       -0.4623
     17 C          -6.5725    1.1748    0.0895 C.ar    1  UNL1        0.0932
     18 C          -6.5274   -0.1546    0.4401 C.ar    1  UNL1       -0.0161
     19 C          -5.1545   -0.5165    0.4718 C.ar    1  UNL1        0.0208
     20 C          -4.4345   -1.6931    0.7503 C.ar    1  UNL1       -0.0504
     21 C          -3.0319   -1.6712    0.6787 C.ar    1  UNL1       -0.0521
     22 C          -2.3386   -0.4898    0.3327 C.ar    1  UNL1        0.0029
     23 C          -0.9209   -0.3984    0.2420 C.ar    1  UNL1        0.0460
     24 S           0.2828   -1.5998    0.5044 S.2     1  UNL1       -0.0855
     25 H           4.0317    1.4662   -1.4122 H       1  UNL1        0.0356
     26 H           4.1120    1.9247    0.3261 H       1  UNL1        0.0356
     27 H           6.5912    1.9851   -0.7360 H       1  UNL1        0.0575
     28 H           7.4502   -0.4067   -0.1449 H       1  UNL1        0.0621
     29 H           5.8894   -3.0057    0.6129 H       1  UNL1        0.0699
     30 H           1.7185    1.5683   -0.4038 H       1  UNL1        0.0650
     31 H          -2.8945    2.7754   -0.5077 H       1  UNL1        0.0837
     32 H          -7.3761    1.8826   -0.0606 H       1  UNL1        0.1030
     33 H          -7.3791   -0.7865    0.6477 H       1  UNL1        0.0655
     34 H          -4.9525   -2.6100    1.0179 H       1  UNL1        0.0625
     35 H          -2.4889   -2.5888    0.8968 H       1  UNL1        0.0624
@<TRIPOS>BOND
     1     1     2    1
     2     2     3    2
     3     3     4    1
     4     4     5   ar
     5     5     6   ar
     6     6     7   ar
     7     7     8   ar
     8     7     9    1
     9     9    10   ar
    10    10    11   ar
    11    11    12   ar
    12    12    13   ar
    13    13    14   ar
    14    14    15   ar
    15    15    16   ar
    16    16    17   ar
    17    17    18   ar
    18    18    19   ar
    19    19    20   ar
    20    20    21   ar
    21    21    22   ar
    22    22    23   ar
    23    23    24   ar
    24     8     1    1
    25    24     9   ar
    26     8     4   ar
    27    23    11   ar
    28    22    14   ar
    29    19    15   ar
    30     1    25    1
    31     1    26    1
    32     2    27    1
    33     3    28    1
    34     5    29    1
    35    10    30    1
    36    13    31    1
    37    17    32    1
    38    18    33    1
    39    20    34    1
    40    21    35    1
