@<TRIPOS>MOLECULE
*****
 39 45 0 0 0
SMALL
GASTEIGER

@<TRIPOS>ATOM
      1 C          -4.0116   -0.8730   -1.8182 C.3     1  UNL1       -0.0075
      2 C          -5.5185   -1.0281   -2.0548 C.2     1  UNL1       -0.0791
      3 C          -6.2351   -0.4682   -1.0530 C.2     1  UNL1       -0.0574
      4 C          -5.3462    0.0855   -0.0996 C.ar    1  UNL1       -0.0142
      5 C          -5.4679    0.7494    1.0822 C.ar    1  UNL1       -0.0163
      6 S          -3.8934    1.1135    1.6978 S.2     1  UNL1       -0.0958
      7 C          -3.0915    0.3752    0.3527 C.ar    1  UNL1        0.0241
      8 C          -4.0155   -0.1341   -0.5226 C.ar    1  UNL1       -0.0217
      9 C          -1.6418    0.3646    0.2912 C.ar    1  UNL1        0.0007
     10 C          -0.8543   -0.4437    1.1403 C.ar    1  UNL1       -0.0099
     11 C           0.5442   -0.4218    1.0012 C.ar    1  UNL1        0.1375
     12 O           1.4346   -1.1479    1.7428 O.2     1  UNL1       -0.4547
     13 C           2.6835   -0.8331    1.2855 C.ar    1  UNL1        0.1369
     14 C           3.8708   -1.3542    1.7740 C.ar    1  UNL1       -0.0105
     15 C           5.0939   -0.9455    1.2125 C.ar    1  UNL1       -0.0073
     16 C           6.4418   -1.3243    1.5276 C.ar    1  UNL1       -0.0469
     17 C           7.3735   -0.6917    0.7383 C.ar    1  UNL1       -0.0232
     18 S           6.6467    0.3616   -0.3879 S.2     1  UNL1       -0.0966
     19 C           5.0598   -0.0159    0.1687 C.ar    1  UNL1        0.0201
     20 C           3.8462    0.5021   -0.3137 C.ar    1  UNL1       -0.0361
     21 C           2.6322    0.0937    0.2465 C.ar    1  UNL1        0.0296
     22 C           1.2610    0.3307    0.0929 C.ar    1  UNL1        0.0362
     23 C           0.5065    1.1666   -0.7849 C.ar    1  UNL1        0.0011
     24 C           1.0051    1.9913   -1.7491 C.ar    1  UNL1       -0.0159
     25 S          -0.3031    2.7961   -2.5289 S.2     1  UNL1       -0.1038
     26 C          -1.4795    2.0105   -1.5386 C.ar    1  UNL1       -0.0160
     27 C          -0.9101    1.1358   -0.6353 C.ar    1  UNL1       -0.0019
     28 H          -3.5296   -1.8504   -1.7284 H       1  UNL1        0.0356
     29 H          -3.5522   -0.2901   -2.6210 H       1  UNL1        0.0356
     30 H          -5.9365   -1.5253   -2.9174 H       1  UNL1        0.0575
     31 H          -7.3133   -0.4436   -0.9816 H       1  UNL1        0.0621
     32 H          -6.3570    1.0401    1.6231 H       1  UNL1        0.0699
     33 H          -1.3136   -1.0820    1.8890 H       1  UNL1        0.0661
     34 H           3.8509   -2.0743    2.5867 H       1  UNL1        0.0661
     35 H           6.7088   -2.0321    2.3029 H       1  UNL1        0.0629
     36 H           8.4492   -0.7983    0.7697 H       1  UNL1        0.0694
     37 H           3.8649    1.2224   -1.1255 H       1  UNL1        0.0636
     38 H           2.0211    2.1883   -2.0546 H       1  UNL1        0.0700
     39 H          -2.5239    2.2503   -1.6873 H       1  UNL1        0.0700
@<TRIPOS>BOND
     1     1     2    1
     2     2     3    2
     3     3     4    1
     4     4     5   ar
     5     5     6   ar
     6     6     7   ar
     7     7     8   ar
     8     7     9    1
     9     9    10   ar
    10    10    11   ar
    11    11    12   ar
    12    12    13   ar
    13    13    14   ar
    14    14    15   ar
    15    15    16   ar
    16    16    17   ar
    17    17    18   ar
    18    18    19   ar
    19    19    20   ar
    20    20    21   ar
    21    21    22   ar
    22    22    23   ar
    23    23    24   ar
    24    24    25   ar
    25    25    26   ar
    26    26    27   ar
    27     8     1    1
    28    27     9   ar
    29     8     4   ar
    30    22    11   ar
    31    27    23   ar
    32    21    13   ar
    33    19    15   ar
    34     1    28    1
    35     1    29    1
    36     2    30    1
    37     3    31    1
    38     5    32    1
    39    10    33    1
    40    14    34    1
    41    16    35    1
    42    17    36    1
    43    20    37    1
    44    24    38    1
    45    26    39    1
