@<TRIPOS>MOLECULE
*****
 46 53 0 0 0
SMALL
GASTEIGER

@<TRIPOS>ATOM
      1 C           4.9961    0.9293   -1.4103 C.3     1  UNL1       -0.0075
      2 C           6.5176    1.0758   -1.5317 C.2     1  UNL1       -0.0791
      3 C           7.1535    0.5044   -0.4830 C.2     1  UNL1       -0.0574
      4 C           6.1921   -0.0499    0.3968 C.ar    1  UNL1       -0.0142
      5 C           6.2197   -0.7233    1.5793 C.ar    1  UNL1       -0.0163
      6 S           4.6006   -1.0809    2.0715 S.2     1  UNL1       -0.0958
      7 C           3.9085   -0.3281    0.6754 C.ar    1  UNL1        0.0240
      8 C           4.8986    0.1820   -0.1234 C.ar    1  UNL1       -0.0217
      9 C           2.4689   -0.3056    0.5081 C.ar    1  UNL1       -0.0017
     10 C           1.6389    0.5884    1.2048 C.ar    1  UNL1       -0.0385
     11 C           0.2304    0.6117    1.0018 C.ar    1  UNL1        0.0217
     12 S          -0.8797    1.7323    1.6982 S.2     1  UNL1       -0.0876
     13 C          -2.2768    0.9829    0.9772 C.ar    1  UNL1        0.0288
     14 C          -1.8504   -0.1492    0.2776 C.ar    1  UNL1        0.0072
     15 C          -2.9055   -1.0239   -0.1635 C.ar    1  UNL1        0.0088
     16 C          -2.8756   -2.3161   -0.6041 C.ar    1  UNL1        0.0100
     17 N          -4.1870   -2.6597   -0.8555 N.ar    1  UNL1       -0.3659
     18 C          -5.0223   -1.6207   -0.4999 C.ar    1  UNL1        0.0100
     19 C          -4.2380   -0.5936   -0.0179 C.ar    1  UNL1        0.0078
     20 C          -4.7170    0.6018    0.5503 C.ar    1  UNL1       -0.0077
     21 C          -6.0665    1.0122    0.6621 C.ar    1  UNL1       -0.0534
     22 C          -6.3765    2.2082    1.3049 C.ar    1  UNL1       -0.0611
     23 C          -5.3593    2.9938    1.8445 C.ar    1  UNL1       -0.0611
     24 C          -4.0212    2.5947    1.7427 C.ar    1  UNL1       -0.0529
     25 C          -3.6659    1.3945    1.0884 C.ar    1  UNL1       -0.0029
     26 C          -0.4535   -0.2607    0.1642 C.ar    1  UNL1        0.0058
     27 C           0.3811   -1.0933   -0.6773 C.ar    1  UNL1       -0.0015
     28 C          -0.0061   -1.7927   -1.7843 C.ar    1  UNL1       -0.0160
     29 S           1.3345   -2.6436   -2.4435 S.2     1  UNL1       -0.1038
     30 C           2.4186   -1.9543   -1.2980 C.ar    1  UNL1       -0.0160
     31 C           1.7855   -1.0806   -0.4358 C.ar    1  UNL1       -0.0020
     32 H           4.5945    0.3544   -2.2491 H       1  UNL1        0.0356
     33 H           4.5147    1.9092   -1.3500 H       1  UNL1        0.0356
     34 H           7.0021    1.5760   -2.3570 H       1  UNL1        0.0575
     35 H           8.2231    0.4720   -0.3311 H       1  UNL1        0.0621
     36 H           7.0634   -1.0243    2.1837 H       1  UNL1        0.0699
     37 H           2.0844    1.2942    1.9046 H       1  UNL1        0.0635
     38 H          -2.0924   -3.0480   -0.7342 H       1  UNL1        0.0813
     39 H          -4.4958   -3.5612   -1.1966 H       1  UNL1        0.1648
     40 H          -6.0936   -1.7377   -0.5876 H       1  UNL1        0.0813
     41 H          -6.8669    0.4020    0.2552 H       1  UNL1        0.0624
     42 H          -7.4122    2.5261    1.3912 H       1  UNL1        0.0618
     43 H          -5.6057    3.9249    2.3494 H       1  UNL1        0.0618
     44 H          -3.2633    3.2423    2.1767 H       1  UNL1        0.0624
     45 H          -0.9637   -1.8540   -2.2768 H       1  UNL1        0.0700
     46 H           3.4677   -2.2116   -1.3562 H       1  UNL1        0.0700
@<TRIPOS>BOND
     1     1     2    1
     2     2     3    2
     3     3     4    1
     4     4     5   ar
     5     5     6   ar
     6     6     7   ar
     7     7     8   ar
     8     7     9    1
     9     9    10   ar
    10    10    11   ar
    11    11    12   ar
    12    12    13   ar
    13    13    14   ar
    14    14    15   ar
    15    15    16   ar
    16    16    17   ar
    17    17    18   ar
    18    18    19   ar
    19    19    20   ar
    20    20    21   ar
    21    21    22   ar
    22    22    23   ar
    23    23    24   ar
    24    24    25   ar
    25    14    26   ar
    26    26    27   ar
    27    27    28   ar
    28    28    29   ar
    29    29    30   ar
    30    30    31   ar
    31     8     1    1
    32    31     9   ar
    33     8     4   ar
    34    26    11   ar
    35    31    27   ar
    36    25    13   ar
    37    19    15   ar
    38    25    20   ar
    39     1    32    1
    40     1    33    1
    41     2    34    1
    42     3    35    1
    43     5    36    1
    44    10    37    1
    45    16    38    1
    46    17    39    1
    47    18    40    1
    48    21    41    1
    49    22    42    1
    50    23    43    1
    51    24    44    1
    52    28    45    1
    53    30    46    1
