@<TRIPOS>MOLECULE
*****
 44 51 0 0 0
SMALL
GASTEIGER

@<TRIPOS>ATOM
      1 C          -4.5275    1.1932    1.1754 C.3     1  UNL1        0.0000
      2 C          -6.0205    1.5284    1.0792 C.2     1  UNL1        0.0000
      3 C          -6.5326    1.1574   -0.1169 C.2     1  UNL1        0.0000
      4 C          -5.5074    0.5725   -0.8996 C.ar    1  UNL1        0.0000
      5 C          -5.4156    0.0272   -2.1423 C.ar    1  UNL1        0.0000
      6 S          -3.7934   -0.5012   -2.4173 S.2     1  UNL1        0.0000
      7 C          -3.2466    0.0265   -0.8507 C.ar    1  UNL1        0.0000
      8 C          -4.3011    0.5775   -0.1642 C.ar    1  UNL1        0.0000
      9 C          -1.8879   -0.1597   -0.4478 C.ar    1  UNL1        0.0000
     10 C          -0.9921    0.7484   -0.8951 C.ar    1  UNL1        0.0000
     11 C           0.3842    0.6134   -0.5287 C.ar    1  UNL1        0.0000
     12 S           1.5255    1.7705   -1.0434 S.2     1  UNL1        0.0000
     13 C           2.8550    0.8842   -0.3987 C.ar    1  UNL1        0.0000
     14 C           4.2231    1.2026   -0.4523 C.ar    1  UNL1        0.0000
     15 SI          5.0307    2.7155   -1.1736 Si      1  UNL1        0.0000
     16 C           6.7063    1.9856   -0.6852 C.2     1  UNL1        0.0000
     17 C           6.6044    0.7862   -0.0819 C.2     1  UNL1        0.0000
     18 C           5.2161    0.3404    0.0515 C.ar    1  UNL1        0.0000
     19 C           4.7936   -0.8811    0.5895 C.ar    1  UNL1        0.0000
     20 N           5.5788   -1.8662    1.0715 N.ar    1  UNL1        0.0000
     21 S           4.5671   -3.1162    1.5107 S.2     1  UNL1        0.0000
     22 N           3.0853   -2.4526    1.1330 N.ar    1  UNL1        0.0000
     23 C           3.3769   -1.2436    0.6810 C.ar    1  UNL1        0.0000
     24 C           2.3794   -0.2835    0.2059 C.ar    1  UNL1        0.0000
     25 C           0.9543   -0.3920    0.2531 C.ar    1  UNL1        0.0000
     26 C           0.0238   -1.3082    0.8764 C.ar    1  UNL1        0.0000
     27 C           0.2289   -2.1945    1.8695 C.2     1  UNL1        0.0000
     28 SI         -1.3097   -3.1516    2.2987 Si      1  UNL1        0.0000
     29 C          -2.2319   -2.1008    1.0764 C.2     1  UNL1        0.0000
     30 C          -1.4183   -1.2070    0.4736 C.ar    1  UNL1        0.0000
     31 H          -3.9333    2.1009    1.3123 H       1  UNL1        0.0000
     32 H          -4.3405    0.4849    1.9873 H       1  UNL1        0.0000
     33 H          -6.5760    2.0010    1.8754 H       1  UNL1        0.0000
     34 H          -7.5582    1.2828   -0.4341 H       1  UNL1        0.0000
     35 H          -6.1767   -0.0999   -2.8986 H       1  UNL1        0.0000
     36 H          -1.2938    1.5638   -1.5476 H       1  UNL1        0.0000
     37 H           4.7408    3.9558   -0.4127 H       1  UNL1        0.0000
     38 H           4.8936    2.8118   -2.6476 H       1  UNL1        0.0000
     39 H           7.6193    2.5206   -0.8979 H       1  UNL1        0.0000
     40 H           7.4352    0.1907    0.2735 H       1  UNL1        0.0000
     41 H           1.1330   -2.3967    2.4131 H       1  UNL1        0.0000
     42 H          -1.2387   -4.5749    1.8902 H       1  UNL1        0.0000
     43 H          -1.7548   -2.9100    3.6926 H       1  UNL1        0.0000
     44 H          -3.2988   -2.2020    0.9513 H       1  UNL1        0.0000
@<TRIPOS>BOND
     1     1     2    1
     2     2     3    2
     3     3     4    1
     4     4     5   ar
     5     5     6   ar
     6     6     7   ar
     7     7     8   ar
     8     7     9    1
     9     9    10   ar
    10    10    11   ar
    11    11    12   ar
    12    12    13   ar
    13    13    14   ar
    14    14    15    1
    15    15    16    1
    16    16    17    2
    17    17    18    1
    18    18    19   ar
    19    19    20   ar
    20    20    21   ar
    21    21    22   ar
    22    22    23   ar
    23    23    24   ar
    24    24    25   ar
    25    25    26   ar
    26    26    27    2
    27    27    28    1
    28    28    29    1
    29    29    30    2
    30     8     1    1
    31    30     9   ar
    32     8     4   ar
    33    25    11   ar
    34    30    26   ar
    35    24    13   ar
    36    18    14   ar
    37    23    19   ar
    38     1    31    1
    39     1    32    1
    40     2    33    1
    41     3    34    1
    42     5    35    1
    43    10    36    1
    44    15    37    1
    45    15    38    1
    46    16    39    1
    47    17    40    1
    48    27    41    1
    49    28    42    1
    50    28    43    1
    51    29    44    1
