@<TRIPOS>MOLECULE
*****
 42 48 0 0 0
SMALL
GASTEIGER

@<TRIPOS>ATOM
      1 C           4.6699   -0.6540    1.2146 C.3     1  UNL1       -0.0075
      2 C           6.0983   -0.6022    1.7675 C.2     1  UNL1       -0.0791
      3 C           6.8130    0.3918    1.1923 C.2     1  UNL1       -0.0574
      4 C           5.9961    1.0676    0.2533 C.ar    1  UNL1       -0.0142
      5 C           6.1551    2.1085   -0.6078 C.ar    1  UNL1       -0.0163
      6 S           4.6788    2.3697   -1.4654 S.2     1  UNL1       -0.0957
      7 C           3.8601    1.0686   -0.6589 C.ar    1  UNL1        0.0249
      8 C           4.7119    0.4757    0.2401 C.ar    1  UNL1       -0.0217
      9 C           2.4625    0.7690   -0.9654 C.ar    1  UNL1        0.0091
     10 C           2.0231    0.5721   -2.2762 C.ar    1  UNL1        0.0366
     11 N           0.7586    0.2747   -2.6633 N.ar    1  UNL1       -0.2522
     12 C          -0.1339    0.1713   -1.6464 C.ar    1  UNL1        0.0962
     13 C           0.2140    0.3499   -0.3162 C.ar    1  UNL1        0.0666
     14 C           1.5237    0.6507    0.0652 C.ar    1  UNL1       -0.0266
     15 N          -0.9319    0.1773    0.4198 N.ar    1  UNL1       -0.3524
     16 C          -2.0157   -0.1164   -0.3819 C.ar    1  UNL1        0.0574
     17 C          -1.5264   -0.1222   -1.6961 C.ar    1  UNL1        0.0263
     18 C          -2.4082   -0.3920   -2.7591 C.ar    1  UNL1       -0.0499
     19 C          -3.7575   -0.6513   -2.5006 C.ar    1  UNL1       -0.0533
     20 C          -4.2672   -0.6517   -1.2018 C.ar    1  UNL1       -0.0153
     21 C          -5.6623   -0.9263   -1.0132 C.ar    1  UNL1       -0.0534
     22 C          -6.3179   -0.9613    0.2341 C.ar    1  UNL1       -0.0529
     23 C          -5.4476   -0.6953    1.2858 C.ar    1  UNL1       -0.0102
     24 C          -5.8888   -0.6819    2.5860 C.ar    1  UNL1       -0.0166
     25 S          -4.6105   -0.3294    3.6687 S.2     1  UNL1       -0.1039
     26 C          -3.4693   -0.1957    2.3853 C.ar    1  UNL1       -0.0160
     27 C          -4.0321   -0.4121    1.1484 C.ar    1  UNL1       -0.0012
     28 C          -3.3741   -0.3765   -0.1034 C.ar    1  UNL1        0.0143
     29 H           4.4785   -1.6107    0.7209 H       1  UNL1        0.0356
     30 H           3.9417   -0.4800    2.0116 H       1  UNL1        0.0356
     31 H           6.4706   -1.2823    2.5192 H       1  UNL1        0.0575
     32 H           7.8438    0.6372    1.4057 H       1  UNL1        0.0621
     33 H           7.0228    2.7255   -0.7927 H       1  UNL1        0.0699
     34 H           2.7230    0.6412   -3.1070 H       1  UNL1        0.0836
     35 H           1.7921    0.8010    1.1048 H       1  UNL1        0.0645
     36 H          -0.9568    0.2614    1.4213 H       1  UNL1        0.1660
     37 H          -2.0338   -0.3968   -3.7799 H       1  UNL1        0.0625
     38 H          -4.4075   -0.8551   -3.3498 H       1  UNL1        0.0624
     39 H          -6.2765   -1.1253   -1.8940 H       1  UNL1        0.0624
     40 H          -7.3746   -1.1730    0.3311 H       1  UNL1        0.0624
     41 H          -6.8860   -0.8583    2.9656 H       1  UNL1        0.0699
     42 H          -2.4589    0.0366    2.6674 H       1  UNL1        0.0700
@<TRIPOS>BOND
     1     1     2    1
     2     2     3    2
     3     3     4    1
     4     4     5   ar
     5     5     6   ar
     6     6     7   ar
     7     7     8   ar
     8     7     9    1
     9     9    10   ar
    10    10    11   ar
    11    11    12   ar
    12    12    13   ar
    13    13    14   ar
    14    13    15   ar
    15    15    16   ar
    16    16    17   ar
    17    17    18   ar
    18    18    19   ar
    19    19    20   ar
    20    20    21   ar
    21    21    22   ar
    22    22    23   ar
    23    23    24   ar
    24    24    25   ar
    25    25    26   ar
    26    26    27   ar
    27    27    28   ar
    28     8     1    1
    29    14     9   ar
    30    28    16   ar
    31     8     4   ar
    32    17    12   ar
    33    28    20   ar
    34    27    23   ar
    35     1    29    1
    36     1    30    1
    37     2    31    1
    38     3    32    1
    39     5    33    1
    40    10    34    1
    41    14    35    1
    42    15    36    1
    43    18    37    1
    44    19    38    1
    45    21    39    1
    46    22    40    1
    47    24    41    1
    48    26    42    1
