@<TRIPOS>MOLECULE
*****
 33 38 0 0 0
SMALL
GASTEIGER

@<TRIPOS>ATOM
      1 C          -3.7830   -1.0179   -1.3922 C.3     1  UNL1       -0.0075
      2 C          -5.3055   -1.1893   -1.3726 C.2     1  UNL1       -0.0791
      3 C          -5.8670   -0.4878   -0.3616 C.2     1  UNL1       -0.0574
      4 C          -4.8494    0.1838    0.3589 C.ar    1  UNL1       -0.0142
      5 C          -4.8009    1.0044    1.4427 C.ar    1  UNL1       -0.0163
      6 S          -3.1588    1.4366    1.7577 S.2     1  UNL1       -0.0957
      7 C          -2.5505    0.5034    0.4266 C.ar    1  UNL1        0.0249
      8 C          -3.5944   -0.1043   -0.2261 C.ar    1  UNL1       -0.0217
      9 C          -1.1172    0.4742    0.1384 C.ar    1  UNL1        0.0106
     10 C          -0.6521    0.7637   -1.1567 C.ar    1  UNL1        0.0368
     11 N           0.6430    0.7570   -1.5790 N.ar    1  UNL1       -0.2491
     12 C           1.4984    0.4348   -0.5897 C.ar    1  UNL1        0.1329
     13 C           1.1474    0.1299    0.7314 C.ar    1  UNL1        0.1567
     14 C          -0.1834    0.1409    1.1334 C.ar    1  UNL1       -0.0075
     15 O           2.2427   -0.1666    1.5174 O.2     1  UNL1       -0.4479
     16 C           3.2351   -0.0248    0.6307 C.ar    1  UNL1        0.1979
     17 C           2.8933    0.3236   -0.6227 C.ar    1  UNL1        0.1156
     18 N           4.0835    0.3960   -1.3092 N.ar    1  UNL1       -0.3473
     19 C           5.1268    0.0900   -0.4647 C.ar    1  UNL1        0.0893
     20 C           6.5099   -0.0836   -0.2546 C.ar    1  UNL1        0.0003
     21 C           6.5854   -0.4342    1.0923 C.ar    1  UNL1        0.0948
     22 O           5.3607   -0.4888    1.7213 O.2     1  UNL1       -0.4576
     23 C           4.5466   -0.1617    0.7194 C.ar    1  UNL1        0.1949
     24 H          -3.4589   -0.5569   -2.3292 H       1  UNL1        0.0356
     25 H          -3.2815   -1.9779   -1.2421 H       1  UNL1        0.0356
     26 H          -5.8451   -1.7980   -2.0830 H       1  UNL1        0.0575
     27 H          -6.9220   -0.4427   -0.1304 H       1  UNL1        0.0621
     28 H          -5.6031    1.3745    2.0651 H       1  UNL1        0.0699
     29 H          -1.3586    1.0363   -1.9398 H       1  UNL1        0.0836
     30 H          -0.4638   -0.1041    2.1502 H       1  UNL1        0.0662
     31 H           4.1683    0.6391   -2.2877 H       1  UNL1        0.1662
     32 H           7.3323    0.0218   -0.9462 H       1  UNL1        0.0670
     33 H           7.4219   -0.6714    1.7370 H       1  UNL1        0.1030
@<TRIPOS>BOND
     1     1     2    1
     2     2     3    2
     3     3     4    1
     4     4     5   ar
     5     5     6   ar
     6     6     7   ar
     7     7     8   ar
     8     7     9    1
     9     9    10   ar
    10    10    11   ar
    11    11    12   ar
    12    12    13   ar
    13    13    14   ar
    14    13    15   ar
    15    15    16   ar
    16    16    17   ar
    17    17    18   ar
    18    18    19   ar
    19    19    20   ar
    20    20    21   ar
    21    21    22   ar
    22    22    23   ar
    23     8     1    1
    24    14     9   ar
    25    23    16   ar
    26     8     4   ar
    27    17    12   ar
    28    23    19   ar
    29     1    24    1
    30     1    25    1
    31     2    26    1
    32     3    27    1
    33     5    28    1
    34    10    29    1
    35    14    30    1
    36    18    31    1
    37    20    32    1
    38    21    33    1
