@<TRIPOS>MOLECULE
*****
 44 51 0 0 0
SMALL
GASTEIGER

@<TRIPOS>ATOM
      1 SI         -1.9704   -4.6438    0.2035 Si      1  UNL1        0.0000
      2 C          -0.6146   -3.3650    0.2205 C.2     1  UNL1        0.0000
      3 C          -1.0961   -2.1109    0.1231 C.ar    1  UNL1        0.0000
      4 C          -0.3573   -0.8831    0.1329 C.ar    1  UNL1        0.0000
      5 C          -1.0693    0.2870    0.3580 C.ar    1  UNL1        0.0000
      6 O          -0.2577    1.3674    0.4835 O.2     1  UNL1        0.0000
      7 C           1.0148    0.9169    0.2612 C.ar    1  UNL1        0.0000
      8 C           2.1675    1.7209    0.3029 C.ar    1  UNL1        0.0000
      9 C           3.4194    1.1513   -0.0039 C.ar    1  UNL1        0.0000
     10 C           4.6469    1.9257    0.0005 C.ar    1  UNL1        0.0000
     11 C           5.4720    2.2970   -1.0447 C.ar    1  UNL1        0.0000
     12 N           6.5874    3.0375   -0.7009 N.ar    1  UNL1        0.0000
     13 C           6.5894    3.2311    0.5994 C.ar    1  UNL1        0.0000
     14 S           5.2813    2.5458    1.4708 S.2     1  UNL1        0.0000
     15 C           3.3642   -0.2055   -0.3794 C.ar    1  UNL1        0.0000
     16 C           4.4695   -0.9423   -0.7570 C.ar    1  UNL1        0.0000
     17 S           4.0581   -2.5409   -1.2532 S.2     1  UNL1        0.0000
     18 C           2.3845   -2.2813   -0.9503 C.ar    1  UNL1        0.0000
     19 C           2.1999   -1.0336   -0.4334 C.ar    1  UNL1        0.0000
     20 C           0.9598   -0.4375   -0.0333 C.ar    1  UNL1        0.0000
     21 C          -2.5010    0.4273    0.4400 C.ar    1  UNL1        0.0000
     22 C          -3.2376    1.5991    0.5953 C.ar    1  UNL1        0.0000
     23 C          -2.8112    2.8924    0.7512 C.ar    1  UNL1        0.0000
     24 O          -3.8917    3.7268    0.8638 O.2     1  UNL1        0.0000
     25 C          -5.0196    2.9571    0.7746 C.ar    1  UNL1        0.0000
     26 C          -4.6625    1.6465    0.6081 C.ar    1  UNL1        0.0000
     27 C          -5.5154    0.5603    0.4679 C.ar    1  UNL1        0.0000
     28 C          -4.7779   -0.6430    0.3100 C.ar    1  UNL1        0.0000
     29 C          -3.3337   -0.7318    0.2974 C.ar    1  UNL1        0.0000
     30 C          -2.6049   -2.0407    0.1645 C.ar    1  UNL1        0.0000
     31 C          -3.2084   -3.2491    0.1825 C.2     1  UNL1        0.0000
     32 H          -1.9852   -5.4325   -1.0512 H       1  UNL1        0.0000
     33 H          -2.0250   -5.4290    1.4590 H       1  UNL1        0.0000
     34 H           0.4056   -3.6791    0.3441 H       1  UNL1        0.0000
     35 H           2.0777    2.7729    0.5575 H       1  UNL1        0.0000
     36 H           5.3063    2.0503   -2.0870 H       1  UNL1        0.0000
     37 H           7.3693    3.7911    1.0986 H       1  UNL1        0.0000
     38 H           5.5085   -0.6445   -0.7983 H       1  UNL1        0.0000
     39 H           1.6783   -3.0536   -1.2035 H       1  UNL1        0.0000
     40 H          -1.8469    3.3779    0.8037 H       1  UNL1        0.0000
     41 H          -5.9554    3.4930    0.8454 H       1  UNL1        0.0000
     42 H          -6.5956    0.5989    0.4737 H       1  UNL1        0.0000
     43 H          -5.3634   -1.5538    0.1904 H       1  UNL1        0.0000
     44 H          -4.2596   -3.4732    0.2508 H       1  UNL1        0.0000
@<TRIPOS>BOND
     1     1     2    1
     2     2     3    2
     3     3     4   ar
     4     4     5   ar
     5     5     6   ar
     6     6     7   ar
     7     7     8   ar
     8     8     9   ar
     9     9    10    1
    10    10    11   ar
    11    11    12   ar
    12    12    13   ar
    13    13    14   ar
    14     9    15   ar
    15    15    16   ar
    16    16    17   ar
    17    17    18   ar
    18    18    19   ar
    19    19    20   ar
    20     5    21   ar
    21    21    22   ar
    22    22    23   ar
    23    23    24   ar
    24    24    25   ar
    25    25    26   ar
    26    26    27   ar
    27    27    28   ar
    28    28    29   ar
    29    29    30   ar
    30    30    31    2
    31    31     1    1
    32    30     3   ar
    33    20     4   ar
    34    29    21   ar
    35    20     7   ar
    36    26    22   ar
    37    14    10   ar
    38    19    15   ar
    39     1    32    1
    40     1    33    1
    41     2    34    1
    42     8    35    1
    43    11    36    1
    44    13    37    1
    45    16    38    1
    46    18    39    1
    47    23    40    1
    48    25    41    1
    49    27    42    1
    50    28    43    1
    51    31    44    1
