@<TRIPOS>MOLECULE
*****
 44 50 0 0 0
SMALL
GASTEIGER

@<TRIPOS>ATOM
      1 C          -5.3090   -0.8542    2.4678 C.3     1  UNL1       -0.0075
      2 C          -6.7686   -0.7977    2.9306 C.2     1  UNL1       -0.0791
      3 C          -7.4765    0.1079    2.2176 C.2     1  UNL1       -0.0574
      4 C          -6.6246    0.7169    1.2643 C.ar    1  UNL1       -0.0142
      5 C          -6.7592    1.6724    0.3055 C.ar    1  UNL1       -0.0163
      6 S          -5.2400    1.9086   -0.4812 S.2     1  UNL1       -0.0957
      7 C          -4.4344    0.7192    0.4928 C.ar    1  UNL1        0.0249
      8 C          -5.3261    0.1683    1.3797 C.ar    1  UNL1       -0.0217
      9 C          -3.0192    0.4257    0.2802 C.ar    1  UNL1        0.0091
     10 C          -2.5840   -0.8889    0.1046 C.ar    1  UNL1        0.0367
     11 N          -1.2931   -1.2481   -0.0784 N.ar    1  UNL1       -0.2507
     12 C          -0.4128   -0.2153   -0.0857 C.ar    1  UNL1        0.1130
     13 C           0.9296   -0.5344   -0.2731 C.ar    1  UNL1        0.0768
     14 N           1.5212   -1.7540   -0.4604 N.ar    1  UNL1       -0.3524
     15 C           2.8794   -1.6241   -0.6055 C.ar    1  UNL1        0.0482
     16 C           3.8346   -2.6217   -0.8130 C.ar    1  UNL1       -0.0372
     17 C           5.1680   -2.2333   -0.9305 C.ar    1  UNL1       -0.0521
     18 C           5.5488   -0.8918   -0.8452 C.ar    1  UNL1       -0.0172
     19 C           6.9013   -0.5352   -0.9680 C.ar    1  UNL1       -0.0540
     20 C           7.3027    0.7976   -0.8861 C.ar    1  UNL1       -0.0612
     21 C           6.3566    1.7942   -0.6801 C.ar    1  UNL1       -0.0611
     22 C           5.0054    1.4623   -0.5551 C.ar    1  UNL1       -0.0534
     23 C           4.5720    0.1197   -0.6341 C.ar    1  UNL1       -0.0081
     24 C           3.1904   -0.2620   -0.5103 C.ar    1  UNL1        0.0166
     25 C           1.9358    0.4303   -0.2978 C.ar    1  UNL1        0.0282
     26 C           1.5455    1.7676   -0.1237 C.ar    1  UNL1        0.0381
     27 N           0.2400    2.1066    0.0614 N.ar    1  UNL1       -0.2527
     28 C          -0.7037    1.1457    0.0774 C.ar    1  UNL1        0.0918
     29 C          -2.0468    1.4391    0.2636 C.ar    1  UNL1       -0.0245
     30 H          -5.0628   -1.8499    2.0891 H       1  UNL1        0.0356
     31 H          -4.6324   -0.5731    3.2795 H       1  UNL1        0.0356
     32 H          -7.1643   -1.4094    3.7278 H       1  UNL1        0.0575
     33 H          -8.5242    0.3393    2.3487 H       1  UNL1        0.0621
     34 H          -7.6304    2.2426    0.0163 H       1  UNL1        0.0699
     35 H          -3.2884   -1.7171    0.0968 H       1  UNL1        0.0836
     36 H           1.0050   -2.6228   -0.4858 H       1  UNL1        0.1660
     37 H           3.5561   -3.6689   -0.8821 H       1  UNL1        0.0638
     38 H           5.9176   -3.0060   -1.0924 H       1  UNL1        0.0624
     39 H           7.6594   -1.2987   -1.1299 H       1  UNL1        0.0624
     40 H           8.3539    1.0556   -0.9836 H       1  UNL1        0.0618
     41 H           6.6676    2.8339   -0.6162 H       1  UNL1        0.0618
     42 H           4.3058    2.2723   -0.3959 H       1  UNL1        0.0624
     43 H           2.2348    2.6019   -0.1240 H       1  UNL1        0.0836
     44 H          -2.3310    2.4787    0.4071 H       1  UNL1        0.0646
@<TRIPOS>BOND
     1     1     2    1
     2     2     3    2
     3     3     4    1
     4     4     5   ar
     5     5     6   ar
     6     6     7   ar
     7     7     8   ar
     8     7     9    1
     9     9    10   ar
    10    10    11   ar
    11    11    12   ar
    12    12    13   ar
    13    13    14   ar
    14    14    15   ar
    15    15    16   ar
    16    16    17   ar
    17    17    18   ar
    18    18    19   ar
    19    19    20   ar
    20    20    21   ar
    21    21    22   ar
    22    22    23   ar
    23    23    24   ar
    24    24    25   ar
    25    25    26   ar
    26    26    27   ar
    27    27    28   ar
    28    28    29   ar
    29     8     1    1
    30    29     9   ar
    31     8     4   ar
    32    28    12   ar
    33    25    13   ar
    34    24    15   ar
    35    23    18   ar
    36     1    30    1
    37     1    31    1
    38     2    32    1
    39     3    33    1
    40     5    34    1
    41    10    35    1
    42    14    36    1
    43    16    37    1
    44    17    38    1
    45    19    39    1
    46    20    40    1
    47    21    41    1
    48    22    42    1
    49    26    43    1
    50    29    44    1
