@<TRIPOS>MOLECULE
*****
 39 45 0 0 0
SMALL
GASTEIGER

@<TRIPOS>ATOM
      1 C          -4.5212    1.1453    0.7360 C.3     1  UNL1        0.0000
      2 C          -6.0509    1.1526    0.7951 C.2     1  UNL1        0.0000
      3 C          -6.5691    0.0719    0.1716 C.2     1  UNL1        0.0000
      4 C          -5.5122   -0.7211   -0.3373 C.ar    1  UNL1        0.0000
      5 C          -5.4281   -1.8839   -1.0311 C.ar    1  UNL1        0.0000
      6 S          -3.7747   -2.2551   -1.3106 S.2     1  UNL1        0.0000
      7 C          -3.1717   -0.8265   -0.4834 C.ar    1  UNL1        0.0000
      8 C          -1.7745   -0.5508   -0.3693 C.2     1  UNL1        0.0000
      9 C          -1.2608    0.5341    0.2558 C.2     1  UNL1        0.0000
     10 C           0.2060    0.5938    0.2398 C.ar    1  UNL1        0.0000
     11 C           0.8678   -0.4738   -0.4163 C.ar    1  UNL1        0.0000
     12 SI         -0.3830   -1.6619   -1.0770 Si      1  UNL1        0.0000
     13 C           2.2629   -0.5135   -0.4885 C.ar    1  UNL1        0.0000
     14 N           3.1630   -1.4178   -1.0560 N.ar    1  UNL1        0.0000
     15 C           4.4126   -0.9496   -0.8219 C.ar    1  UNL1        0.0000
     16 C           5.6960   -1.4058   -1.1370 C.2     1  UNL1        0.0000
     17 C           6.5305   -0.4727   -0.6126 C.2     1  UNL1        0.0000
     18 C           5.7709    0.6811    0.0978 C.3     1  UNL1        0.0000
     19 C           4.3862    0.2252   -0.1244 C.ar    1  UNL1        0.0000
     20 C           3.0509    0.4953    0.0822 C.ar    1  UNL1        0.0000
     21 C           2.4423    1.6019    0.7596 C.ar    1  UNL1        0.0000
     22 N           3.1376    2.5818    1.3164 N.ar    1  UNL1        0.0000
     23 S           1.9286    3.5637    1.9408 S.2     1  UNL1        0.0000
     24 N           0.5564    2.7129    1.4841 N.ar    1  UNL1        0.0000
     25 C           0.9847    1.6184    0.8202 C.ar    1  UNL1        0.0000
     26 C          -4.2686   -0.1199   -0.0246 C.ar    1  UNL1        0.0000
     27 H          -4.1549    2.0239    0.1975 H       1  UNL1        0.0000
     28 H          -4.0995    1.1051    1.7443 H       1  UNL1        0.0000
     29 H          -6.6244    1.9300    1.2774 H       1  UNL1        0.0000
     30 H          -7.6201   -0.1592    0.0719 H       1  UNL1        0.0000
     31 H          -6.2162   -2.5315   -1.3876 H       1  UNL1        0.0000
     32 H          -1.8181    1.3214    0.7422 H       1  UNL1        0.0000
     33 H          -0.2903   -2.9871   -0.4112 H       1  UNL1        0.0000
     34 H          -0.3657   -1.7117   -2.5620 H       1  UNL1        0.0000
     35 H           2.9207   -2.2657   -1.5504 H       1  UNL1        0.0000
     36 H           5.9647   -2.3007   -1.6769 H       1  UNL1        0.0000
     37 H           7.6088   -0.5057   -0.6697 H       1  UNL1        0.0000
     38 H           5.9797    1.6368   -0.3898 H       1  UNL1        0.0000
     39 H           6.0335    0.7189    1.1583 H       1  UNL1        0.0000
@<TRIPOS>BOND
     1     1     2    1
     2     2     3    2
     3     3     4    1
     4     4     5   ar
     5     5     6   ar
     6     6     7   ar
     7     7     8    1
     8     8     9    2
     9     9    10    1
    10    10    11   ar
    11    11    12    1
    12    11    13   ar
    13    13    14   ar
    14    14    15   ar
    15    15    16    1
    16    16    17    2
    17    17    18    1
    18    18    19    1
    19    19    20   ar
    20    20    21   ar
    21    21    22   ar
    22    22    23   ar
    23    23    24   ar
    24    24    25   ar
    25     7    26   ar
    26    26     1    1
    27    26     4   ar
    28    12     8    1
    29    20    13   ar
    30    25    21   ar
    31    25    10   ar
    32    19    15   ar
    33     1    27    1
    34     1    28    1
    35     2    29    1
    36     3    30    1
    37     5    31    1
    38     9    32    1
    39    12    33    1
    40    12    34    1
    41    14    35    1
    42    16    36    1
    43    17    37    1
    44    18    38    1
    45    18    39    1
