@<TRIPOS>MOLECULE
*****
 49 56 0 0 0
SMALL
GASTEIGER

@<TRIPOS>ATOM
      1 C           4.9859   -1.5446   -0.7404 C.3     1  UNL1        0.0000
      2 C           6.5016   -1.7316   -0.8656 C.2     1  UNL1        0.0000
      3 C           7.1661   -0.6082   -0.5118 C.2     1  UNL1        0.0000
      4 C           6.2299    0.3870   -0.1392 C.ar    1  UNL1        0.0000
      5 C           6.2966    1.6753    0.2876 C.ar    1  UNL1        0.0000
      6 S           4.7003    2.2720    0.5481 S.2     1  UNL1        0.0000
      7 C           3.9369    0.7755    0.0684 C.ar    1  UNL1        0.0000
      8 C           2.5287    0.6235    0.0802 C.2     1  UNL1        0.0000
      9 C           1.9044   -0.4476    0.6027 C.2     1  UNL1        0.0000
     10 C           0.4204   -0.4439    0.4843 C.ar    1  UNL1        0.0000
     11 C          -0.1082    0.6935   -0.1761 C.ar    1  UNL1        0.0000
     12 SI          1.3354    1.8214   -0.6736 Si      1  UNL1        0.0000
     13 C          -1.5098    0.8741   -0.3187 C.ar    1  UNL1        0.0000
     14 C          -2.2019    1.9168   -1.0075 C.ar    1  UNL1        0.0000
     15 C          -1.7063    2.9082   -1.8224 C.ar    1  UNL1        0.0000
     16 O          -2.7163    3.6960   -2.2944 O.2     1  UNL1        0.0000
     17 C          -3.8783    3.2054   -1.7865 C.ar    1  UNL1        0.0000
     18 C          -3.6126    2.1081   -1.0076 C.ar    1  UNL1        0.0000
     19 C          -4.5403    1.3473   -0.2873 C.ar    1  UNL1        0.0000
     20 C          -5.9260    1.6132   -0.2120 C.ar    1  UNL1        0.0000
     21 C          -6.6787    0.8348    0.6351 C.ar    1  UNL1        0.0000
     22 N          -6.1472   -0.1272    1.4047 N.ar    1  UNL1        0.0000
     23 C          -4.8056   -0.3480    1.2868 C.ar    1  UNL1        0.0000
     24 C          -3.8989    0.2810    0.4115 C.ar    1  UNL1        0.0000
     25 C          -2.4307   -0.0622    0.2872 C.ar    1  UNL1        0.0000
     26 C          -1.8418   -1.3161    0.7486 C.ar    1  UNL1        0.0000
     27 C          -2.6137   -2.4844    0.9911 C.ar    1  UNL1        0.0000
     28 C          -2.0909   -3.6728    1.5078 C.ar    1  UNL1        0.0000
     29 C          -0.7424   -3.7598    1.7752 C.ar    1  UNL1        0.0000
     30 C           0.0766   -2.6803    1.4627 C.ar    1  UNL1        0.0000
     31 C          -0.4324   -1.4756    0.9112 C.ar    1  UNL1        0.0000
     32 C           4.9201   -0.1312   -0.2600 C.ar    1  UNL1        0.0000
     33 H           4.5712   -2.2447   -0.0100 H       1  UNL1        0.0000
     34 H           4.4976   -1.6671   -1.7112 H       1  UNL1        0.0000
     35 H           6.9626   -2.6506   -1.1955 H       1  UNL1        0.0000
     36 H           8.2391   -0.4794   -0.5120 H       1  UNL1        0.0000
     37 H           7.1607    2.3000    0.4630 H       1  UNL1        0.0000
     38 H           2.4337   -1.2540    1.0898 H       1  UNL1        0.0000
     39 H           1.4497    1.9235   -2.1524 H       1  UNL1        0.0000
     40 H           1.2566    3.1308    0.0239 H       1  UNL1        0.0000
     41 H          -0.7346    3.2005   -2.1871 H       1  UNL1        0.0000
     42 H          -4.7702    3.7436   -2.0739 H       1  UNL1        0.0000
     43 H          -6.3933    2.4127   -0.7735 H       1  UNL1        0.0000
     44 H          -7.7484    0.9851    0.7432 H       1  UNL1        0.0000
     45 H          -4.4596   -1.0685    2.0240 H       1  UNL1        0.0000
     46 H          -3.6660   -2.5203    0.7175 H       1  UNL1        0.0000
     47 H          -2.7429   -4.5245    1.6827 H       1  UNL1        0.0000
     48 H          -0.3174   -4.6728    2.1823 H       1  UNL1        0.0000
     49 H           1.1404   -2.8137    1.6368 H       1  UNL1        0.0000
@<TRIPOS>BOND
     1     1     2    1
     2     2     3    2
     3     3     4    1
     4     4     5   ar
     5     5     6   ar
     6     6     7   ar
     7     7     8    1
     8     8     9    2
     9     9    10    1
    10    10    11   ar
    11    11    12    1
    12    11    13   ar
    13    13    14   ar
    14    14    15   ar
    15    15    16   ar
    16    16    17   ar
    17    17    18   ar
    18    18    19   ar
    19    19    20   ar
    20    20    21   ar
    21    21    22   ar
    22    22    23   ar
    23    23    24   ar
    24    24    25   ar
    25    25    26   ar
    26    26    27   ar
    27    27    28   ar
    28    28    29   ar
    29    29    30   ar
    30    30    31   ar
    31     7    32   ar
    32    32     1    1
    33    32     4   ar
    34    12     8    1
    35    25    13   ar
    36    31    26   ar
    37    31    10   ar
    38    18    14   ar
    39    24    19   ar
    40     1    33    1
    41     1    34    1
    42     2    35    1
    43     3    36    1
    44     5    37    1
    45     9    38    1
    46    12    39    1
    47    12    40    1
    48    15    41    1
    49    17    42    1
    50    20    43    1
    51    21    44    1
    52    23    45    1
    53    27    46    1
    54    28    47    1
    55    29    48    1
    56    30    49    1
