@<TRIPOS>MOLECULE
*****
 45 52 0 0 0
SMALL
GASTEIGER

@<TRIPOS>ATOM
      1 C           4.9281   -1.2932    1.3738 C.3     1  UNL1        0.0000
      2 C           6.4185   -1.4196    1.7066 C.2     1  UNL1        0.0000
      3 C           7.1267   -0.3914    1.1871 C.2     1  UNL1        0.0000
      4 C           6.2459    0.4782    0.4991 C.ar    1  UNL1        0.0000
      5 C           6.3700    1.6395   -0.1954 C.ar    1  UNL1        0.0000
      6 S           4.8179    2.1333   -0.7602 S.2     1  UNL1        0.0000
      7 C           3.9936    0.7690   -0.0449 C.ar    1  UNL1        0.0000
      8 C           2.5939    0.5918   -0.1794 C.2     1  UNL1        0.0000
      9 C           2.0205   -0.5884   -0.4879 C.2     1  UNL1        0.0000
     10 C           0.5651   -0.5179   -0.5217 C.ar    1  UNL1        0.0000
     11 C          -0.0938    0.7108   -0.2390 C.ar    1  UNL1        0.0000
     12 SI          1.3307    1.9582    0.1221 Si      1  UNL1        0.0000
     13 C          -1.5290    0.9180   -0.2472 C.ar    1  UNL1        0.0000
     14 C          -2.0456    2.1985   -0.0126 C.ar    1  UNL1        0.0000
     15 C          -3.4142    2.4746   -0.0129 C.ar    1  UNL1        0.0000
     16 C          -4.3705    1.4805   -0.1879 C.ar    1  UNL1        0.0000
     17 C          -5.7290    1.8925   -0.1287 C.ar    1  UNL1        0.0000
     18 C          -6.8198    1.0263   -0.2250 C.ar    1  UNL1        0.0000
     19 C          -6.4915   -0.3325   -0.3481 C.ar    1  UNL1        0.0000
     20 N          -7.3942   -1.3237   -0.4028 N.ar    1  UNL1        0.0000
     21 S          -6.5363   -2.7336   -0.4812 S.2     1  UNL1        0.0000
     22 N          -4.9944   -2.1444   -0.4666 N.ar    1  UNL1        0.0000
     23 C          -5.0514   -0.8031   -0.4234 C.ar    1  UNL1        0.0000
     24 C          -3.9318    0.1293   -0.3962 C.ar    1  UNL1        0.0000
     25 C          -2.4874   -0.1466   -0.5022 C.ar    1  UNL1        0.0000
     26 C          -1.7668   -1.3507   -0.8481 C.ar    1  UNL1        0.0000
     27 C          -2.2324   -2.5473   -1.3396 C.ar    1  UNL1        0.0000
     28 O          -1.2059   -3.4243   -1.5587 O.2     1  UNL1        0.0000
     29 C          -0.0489   -2.7807   -1.2491 C.ar    1  UNL1        0.0000
     30 C          -0.3376   -1.5058   -0.8450 C.ar    1  UNL1        0.0000
     31 C           4.9270   -0.0237    0.5855 C.ar    1  UNL1        0.0000
     32 H           4.3320   -1.2056    2.2864 H       1  UNL1        0.0000
     33 H           4.5942   -2.1460    0.7764 H       1  UNL1        0.0000
     34 H           6.8324   -2.2336    2.2828 H       1  UNL1        0.0000
     35 H           8.1938   -0.2464    1.2782 H       1  UNL1        0.0000
     36 H           7.2531    2.2244   -0.4088 H       1  UNL1        0.0000
     37 H           2.5540   -1.5049   -0.6979 H       1  UNL1        0.0000
     38 H           1.3478    3.0406   -0.8964 H       1  UNL1        0.0000
     39 H           1.2802    2.4208    1.5338 H       1  UNL1        0.0000
     40 H          -1.3885    3.0478    0.1629 H       1  UNL1        0.0000
     41 H          -3.7151    3.5087    0.1574 H       1  UNL1        0.0000
     42 H          -5.9597    2.9514    0.0102 H       1  UNL1        0.0000
     43 H          -7.8454    1.3691   -0.1711 H       1  UNL1        0.0000
     44 H          -3.1923   -2.9483   -1.6169 H       1  UNL1        0.0000
     45 H           0.8562   -3.3516   -1.3980 H       1  UNL1        0.0000
@<TRIPOS>BOND
     1     1     2    1
     2     2     3    2
     3     3     4    1
     4     4     5   ar
     5     5     6   ar
     6     6     7   ar
     7     7     8    1
     8     8     9    2
     9     9    10    1
    10    10    11   ar
    11    11    12    1
    12    11    13   ar
    13    13    14   ar
    14    14    15   ar
    15    15    16   ar
    16    16    17   ar
    17    17    18   ar
    18    18    19   ar
    19    19    20   ar
    20    20    21   ar
    21    21    22   ar
    22    22    23   ar
    23    23    24   ar
    24    24    25   ar
    25    25    26   ar
    26    26    27   ar
    27    27    28   ar
    28    28    29   ar
    29    29    30   ar
    30     7    31   ar
    31    31     1    1
    32    31     4   ar
    33    12     8    1
    34    25    13   ar
    35    30    26   ar
    36    30    10   ar
    37    24    16   ar
    38    23    19   ar
    39     1    32    1
    40     1    33    1
    41     2    34    1
    42     3    35    1
    43     5    36    1
    44     9    37    1
    45    12    38    1
    46    12    39    1
    47    14    40    1
    48    15    41    1
    49    17    42    1
    50    18    43    1
    51    27    44    1
    52    29    45    1
