@<TRIPOS>MOLECULE
*****
 39 44 0 0 0
SMALL
GASTEIGER

@<TRIPOS>ATOM
      1 C           4.0879   -1.1604    0.2232 C.3     1  UNL1       -0.0075
      2 C           5.6161   -1.0742    0.2644 C.2     1  UNL1       -0.0791
      3 C           6.0350    0.2107    0.2296 C.2     1  UNL1       -0.0574
      4 C           4.9073    1.0648    0.1657 C.ar    1  UNL1       -0.0142
      5 C           4.7092    2.4070    0.1109 C.ar    1  UNL1       -0.0163
      6 S           3.0190    2.7277    0.0502 S.2     1  UNL1       -0.0961
      7 C           2.5682    1.0375    0.0989 C.ar    1  UNL1        0.0197
      8 C           1.2088    0.5858    0.0760 C.2     1  UNL1       -0.0284
      9 C           0.1523    1.4236    0.0143 C.2     1  UNL1       -0.0491
     10 C          -1.0946    0.6568    0.0065 C.ar    1  UNL1       -0.0116
     11 C          -0.7583   -0.7034    0.0667 C.ar    1  UNL1       -0.0114
     12 C           0.7342   -0.8591    0.1158 C.3     1  UNL1        0.0012
     13 C          -1.7738   -1.6534    0.0725 C.ar    1  UNL1        0.0512
     14 N          -1.7216   -3.0258    0.1249 N.ar    1  UNL1       -0.3604
     15 C          -2.9869   -3.5460    0.1075 C.ar    1  UNL1        0.0028
     16 C          -3.8718   -2.4941    0.0428 C.ar    1  UNL1       -0.0361
     17 C          -3.1204   -1.2786    0.0196 C.ar    1  UNL1        0.0077
     18 C          -3.4516    0.1143   -0.0417 C.ar    1  UNL1       -0.0082
     19 C          -4.8028    0.5158   -0.0957 C.ar    1  UNL1       -0.0534
     20 C          -5.1398    1.8680   -0.1556 C.ar    1  UNL1       -0.0611
     21 C          -4.1394    2.8350   -0.1624 C.ar    1  UNL1       -0.0611
     22 C          -2.7957    2.4558   -0.1094 C.ar    1  UNL1       -0.0534
     23 C          -2.4233    1.0964   -0.0483 C.ar    1  UNL1       -0.0098
     24 C           3.7247    0.2884    0.1598 C.ar    1  UNL1       -0.0220
     25 H           3.7558   -1.7023   -0.6666 H       1  UNL1        0.0356
     26 H           3.7037   -1.6367    1.1295 H       1  UNL1        0.0356
     27 H           6.2615   -1.9383    0.3147 H       1  UNL1        0.0575
     28 H           7.0630    0.5438    0.2473 H       1  UNL1        0.0621
     29 H           5.4306    3.2113    0.1025 H       1  UNL1        0.0699
     30 H           0.1687    2.5008   -0.0251 H       1  UNL1        0.0627
     31 H           1.0917   -1.4185   -0.7543 H       1  UNL1        0.0363
     32 H           1.0396   -1.3519    1.0439 H       1  UNL1        0.0363
     33 H          -0.8703   -3.5680    0.1696 H       1  UNL1        0.1653
     34 H          -3.1498   -4.6148    0.1424 H       1  UNL1        0.0807
     35 H          -4.9492   -2.5873    0.0151 H       1  UNL1        0.0639
     36 H          -5.6013   -0.2212   -0.0915 H       1  UNL1        0.0624
     37 H          -6.1843    2.1654   -0.1968 H       1  UNL1        0.0618
     38 H          -4.4026    3.8887   -0.2091 H       1  UNL1        0.0618
     39 H          -2.0396    3.2365   -0.1165 H       1  UNL1        0.0624
@<TRIPOS>BOND
     1     1     2    1
     2     2     3    2
     3     3     4    1
     4     4     5   ar
     5     5     6   ar
     6     6     7   ar
     7     7     8    1
     8     8     9    2
     9     9    10    1
    10    10    11   ar
    11    11    12    1
    12    11    13   ar
    13    13    14   ar
    14    14    15   ar
    15    15    16   ar
    16    16    17   ar
    17    17    18   ar
    18    18    19   ar
    19    19    20   ar
    20    20    21   ar
    21    21    22   ar
    22    22    23   ar
    23     7    24   ar
    24    24     1    1
    25    24     4   ar
    26    12     8    1
    27    17    13   ar
    28    23    18   ar
    29    23    10   ar
    30     1    25    1
    31     1    26    1
    32     2    27    1
    33     3    28    1
    34     5    29    1
    35     9    30    1
    36    12    31    1
    37    12    32    1
    38    14    33    1
    39    15    34    1
    40    16    35    1
    41    19    36    1
    42    20    37    1
    43    21    38    1
    44    22    39    1
