@<TRIPOS>MOLECULE
*****
 50 57 0 0 0
SMALL
GASTEIGER

@<TRIPOS>ATOM
      1 C           3.8330    1.6257   -1.8284 C.3     1  UNL1       -0.0075
      2 C           4.9846    2.2871   -2.5904 C.2     1  UNL1       -0.0791
      3 C           6.1816    1.9400   -2.0666 C.2     1  UNL1       -0.0574
      4 C           5.9731    1.0674   -0.9710 C.ar    1  UNL1       -0.0142
      5 C           6.7698    0.4148   -0.0861 C.ar    1  UNL1       -0.0163
      6 S           5.7873   -0.4911    0.9989 S.2     1  UNL1       -0.0961
      7 C           4.2842    0.0110    0.2566 C.ar    1  UNL1        0.0197
      8 C           2.9978   -0.4206    0.7182 C.2     1  UNL1       -0.0284
      9 C           2.8359   -1.2611    1.7632 C.2     1  UNL1       -0.0491
     10 C           1.4205   -1.4698    1.9373 C.ar    1  UNL1       -0.0124
     11 C           0.6576   -0.7571    0.9949 C.ar    1  UNL1       -0.0276
     12 C           1.6415   -0.0159    0.1251 C.3     1  UNL1       -0.0002
     13 C          -0.7712   -0.7666    0.9182 C.ar    1  UNL1       -0.0126
     14 C          -1.4694   -0.0252   -0.0561 C.ar    1  UNL1       -0.0454
     15 C          -2.8878   -0.0042   -0.1706 C.ar    1  UNL1       -0.0096
     16 C          -3.6187   -0.7828    0.7616 C.ar    1  UNL1       -0.0167
     17 C          -5.0145   -0.8098    0.7086 C.ar    1  UNL1       -0.0534
     18 C          -5.7076   -0.0795   -0.2516 C.ar    1  UNL1       -0.0534
     19 C          -5.0249    0.6997   -1.1875 C.ar    1  UNL1       -0.0173
     20 C          -5.7565    1.4249   -2.1436 C.ar    1  UNL1       -0.0540
     21 C          -5.1143    2.2135   -3.0937 C.ar    1  UNL1       -0.0612
     22 C          -3.7304    2.2855   -3.0978 C.ar    1  UNL1       -0.0611
     23 C          -2.9917    1.5683   -2.1513 C.ar    1  UNL1       -0.0534
     24 C          -3.6070    0.7531   -1.1662 C.ar    1  UNL1       -0.0102
     25 C          -2.9578   -1.5334    1.7451 C.ar    1  UNL1       -0.0457
     26 C          -1.5496   -1.5365    1.8366 C.ar    1  UNL1       -0.0088
     27 C          -0.7637   -2.2606    2.7946 C.ar    1  UNL1       -0.0026
     28 C          -1.2698   -3.0727    3.7831 C.ar    1  UNL1       -0.0160
     29 S          -0.0217   -3.7729    4.7398 S.2     1  UNL1       -0.1038
     30 C           1.2149   -2.9928    3.8371 C.ar    1  UNL1       -0.0160
     31 C           0.6824   -2.2214    2.8352 C.ar    1  UNL1       -0.0029
     32 C           4.5861    0.8528   -0.7933 C.ar    1  UNL1       -0.0220
     33 H           3.1833    2.3817   -1.3787 H       1  UNL1        0.0356
     34 H           3.2598    0.9694   -2.4890 H       1  UNL1        0.0356
     35 H           4.8415    2.9438   -3.4355 H       1  UNL1        0.0575
     36 H           7.1484    2.2698   -2.4196 H       1  UNL1        0.0621
     37 H           7.8471    0.4074   -0.0026 H       1  UNL1        0.0699
     38 H           3.5882   -1.7186    2.3843 H       1  UNL1        0.0627
     39 H           1.4916    1.0653    0.2070 H       1  UNL1        0.0362
     40 H           1.5614   -0.3452   -0.9157 H       1  UNL1        0.0362
     41 H          -0.8798    0.5607   -0.7551 H       1  UNL1        0.0630
     42 H          -5.5853   -1.4042    1.4194 H       1  UNL1        0.0624
     43 H          -6.7946   -0.1279   -0.2585 H       1  UNL1        0.0624
     44 H          -6.8438    1.3800   -2.1549 H       1  UNL1        0.0624
     45 H          -5.6947    2.7679   -3.8259 H       1  UNL1        0.0618
     46 H          -3.2185    2.8983   -3.8352 H       1  UNL1        0.0618
     47 H          -1.9113    1.6626   -2.2023 H       1  UNL1        0.0624
     48 H          -3.5415   -2.1221    2.4481 H       1  UNL1        0.0630
     49 H          -2.2979   -3.3089    4.0158 H       1  UNL1        0.0700
     50 H           2.2522   -3.1498    4.0986 H       1  UNL1        0.0700
@<TRIPOS>BOND
     1     1     2    1
     2     2     3    2
     3     3     4    1
     4     4     5   ar
     5     5     6   ar
     6     6     7   ar
     7     7     8    1
     8     8     9    2
     9     9    10    1
    10    10    11   ar
    11    11    12    1
    12    11    13   ar
    13    13    14   ar
    14    14    15   ar
    15    15    16   ar
    16    16    17   ar
    17    17    18   ar
    18    18    19   ar
    19    19    20   ar
    20    20    21   ar
    21    21    22   ar
    22    22    23   ar
    23    23    24   ar
    24    16    25   ar
    25    25    26   ar
    26    26    27   ar
    27    27    28   ar
    28    28    29   ar
    29    29    30   ar
    30    30    31   ar
    31     7    32   ar
    32    32     1    1
    33    32     4   ar
    34    12     8    1
    35    26    13   ar
    36    31    27   ar
    37    31    10   ar
    38    24    15   ar
    39    24    19   ar
    40     1    33    1
    41     1    34    1
    42     2    35    1
    43     3    36    1
    44     5    37    1
    45     9    38    1
    46    12    39    1
    47    12    40    1
    48    14    41    1
    49    17    42    1
    50    18    43    1
    51    20    44    1
    52    21    45    1
    53    22    46    1
    54    23    47    1
    55    25    48    1
    56    28    49    1
    57    30    50    1
