@<TRIPOS>MOLECULE
*****
 49 56 0 0 0
SMALL
GASTEIGER

@<TRIPOS>ATOM
      1 C           5.4409    2.1670   -0.9386 C.3     1  UNL1       -0.0075
      2 C           6.9697    2.2465   -0.9234 C.2     1  UNL1       -0.0791
      3 C           7.5090    1.1754   -0.3004 C.2     1  UNL1       -0.0574
      4 C           6.4682    0.3215    0.1387 C.ar    1  UNL1       -0.0142
      5 C           6.4057   -0.8623    0.8011 C.ar    1  UNL1       -0.0163
      6 S           4.7578   -1.3181    0.9920 S.2     1  UNL1       -0.0961
      7 C           4.1410    0.1020    0.1702 C.ar    1  UNL1        0.0197
      8 C           2.7274    0.2631    0.0236 C.2     1  UNL1       -0.0284
      9 C           2.1917    1.3319   -0.5908 C.2     1  UNL1       -0.0483
     10 C           0.7503    1.1898   -0.5707 C.ar    1  UNL1       -0.0025
     11 C          -0.2028    2.0178   -1.0685 C.ar    1  UNL1        0.0357
     12 N          -1.5070    1.7203   -0.9568 N.ar    1  UNL1       -0.2537
     13 C          -1.9334    0.5837   -0.3441 C.ar    1  UNL1        0.0801
     14 C          -1.0220   -0.3544    0.2130 C.ar    1  UNL1        0.0128
     15 C           0.3526    0.0125    0.0658 C.ar    1  UNL1       -0.0247
     16 C           1.6221   -0.6757    0.4991 C.3     1  UNL1       -0.0001
     17 C          -1.5401   -1.5515    0.8554 C.ar    1  UNL1       -0.0078
     18 C          -0.7071   -2.5475    1.4415 C.ar    1  UNL1       -0.0534
     19 C          -1.1816   -3.7028    2.0626 C.ar    1  UNL1       -0.0611
     20 C          -2.5347   -3.9186    2.1270 C.ar    1  UNL1       -0.0611
     21 C          -3.3921   -2.9749    1.5689 C.ar    1  UNL1       -0.0534
     22 C          -2.9477   -1.7813    0.9254 C.ar    1  UNL1       -0.0095
     23 C          -3.8701   -0.8389    0.3652 C.ar    1  UNL1       -0.0075
     24 C          -5.3175   -1.0489    0.4223 C.ar    1  UNL1       -0.0528
     25 C          -6.3309   -0.2108   -0.0836 C.ar    1  UNL1       -0.0529
     26 C          -5.7885    0.9077   -0.6810 C.ar    1  UNL1       -0.0102
     27 C          -6.6014    1.8620   -1.2430 C.ar    1  UNL1       -0.0166
     28 S          -5.6813    3.1378   -1.9121 S.2     1  UNL1       -0.1039
     29 C          -4.2034    2.3967   -1.4410 C.ar    1  UNL1       -0.0160
     30 C          -4.3793    1.1963   -0.7833 C.ar    1  UNL1       -0.0011
     31 C          -3.3318    0.3382   -0.2650 C.ar    1  UNL1        0.0169
     32 C           5.2146    0.8742   -0.2211 C.ar    1  UNL1       -0.0220
     33 H           5.0685    2.1327   -1.9663 H       1  UNL1        0.0356
     34 H           5.0074    3.0135   -0.3987 H       1  UNL1        0.0356
     35 H           7.5287    3.0610   -1.3593 H       1  UNL1        0.0575
     36 H           8.5640    0.9908   -0.1553 H       1  UNL1        0.0621
     37 H           7.2050   -1.4824    1.1809 H       1  UNL1        0.0699
     38 H           2.6900    2.1751   -1.0377 H       1  UNL1        0.0627
     39 H           0.0319    2.9469   -1.5740 H       1  UNL1        0.0836
     40 H           1.7284   -1.6445    0.0005 H       1  UNL1        0.0362
     41 H           1.6635   -0.7632    1.5897 H       1  UNL1        0.0362
     42 H           0.3692   -2.4638    1.4391 H       1  UNL1        0.0624
     43 H          -0.4864   -4.4209    2.4891 H       1  UNL1        0.0618
     44 H          -2.9323   -4.8094    2.6047 H       1  UNL1        0.0618
     45 H          -4.4465   -3.2150    1.6591 H       1  UNL1        0.0624
     46 H          -5.7097   -1.9437    0.9020 H       1  UNL1        0.0624
     47 H          -7.3840   -0.4421    0.0015 H       1  UNL1        0.0624
     48 H          -7.6809    1.8863   -1.3006 H       1  UNL1        0.0699
     49 H          -3.2951    2.9202   -1.6939 H       1  UNL1        0.0700
@<TRIPOS>BOND
     1     1     2    1
     2     2     3    2
     3     3     4    1
     4     4     5   ar
     5     5     6   ar
     6     6     7   ar
     7     7     8    1
     8     8     9    2
     9     9    10    1
    10    10    11   ar
    11    11    12   ar
    12    12    13   ar
    13    13    14   ar
    14    14    15   ar
    15    15    16    1
    16    14    17   ar
    17    17    18   ar
    18    18    19   ar
    19    19    20   ar
    20    20    21   ar
    21    21    22   ar
    22    22    23   ar
    23    23    24   ar
    24    24    25   ar
    25    25    26   ar
    26    26    27   ar
    27    27    28   ar
    28    28    29   ar
    29    29    30   ar
    30    30    31   ar
    31     7    32   ar
    32    32     1    1
    33    32     4   ar
    34    16     8    1
    35    22    17   ar
    36    31    23   ar
    37    15    10   ar
    38    30    26   ar
    39    31    13   ar
    40     1    33    1
    41     1    34    1
    42     2    35    1
    43     3    36    1
    44     5    37    1
    45     9    38    1
    46    11    39    1
    47    16    40    1
    48    16    41    1
    49    18    42    1
    50    19    43    1
    51    20    44    1
    52    21    45    1
    53    24    46    1
    54    25    47    1
    55    27    48    1
    56    29    49    1
