@<TRIPOS>MOLECULE
*****
 43 49 0 0 0
SMALL
GASTEIGER

@<TRIPOS>ATOM
      1 C           4.6613   -1.4814    1.0304 C.3     1  UNL1       -0.0075
      2 C           6.1135   -1.8702    1.3227 C.2     1  UNL1       -0.0791
      3 C           6.9717   -1.1941    0.5264 C.2     1  UNL1       -0.0574
      4 C           6.2355   -0.3372   -0.3274 C.ar    1  UNL1       -0.0142
      5 C           6.5407    0.5534   -1.3060 C.ar    1  UNL1       -0.0163
      6 S           5.0865    1.2420   -1.9187 S.2     1  UNL1       -0.0961
      7 C           4.0521    0.3232   -0.8481 C.ar    1  UNL1        0.0197
      8 C           2.6243    0.4357   -0.8468 C.2     1  UNL1       -0.0284
      9 C           1.9470    1.2592   -1.6757 C.2     1  UNL1       -0.0483
     10 C           0.5280    1.1234   -1.4079 C.ar    1  UNL1       -0.0011
     11 C          -0.5639    1.7286   -1.9663 C.ar    1  UNL1        0.0358
     12 N          -1.8198    1.4458   -1.5543 N.ar    1  UNL1       -0.2522
     13 C          -2.0068    0.5293   -0.5512 C.ar    1  UNL1        0.0978
     14 C          -0.9249   -0.1344    0.0709 C.ar    1  UNL1        0.0938
     15 N          -1.0416   -1.0438    1.0602 N.ar    1  UNL1       -0.2525
     16 C          -2.2862   -1.3463    1.4924 C.ar    1  UNL1        0.0361
     17 C          -3.4579   -0.7939    0.9977 C.ar    1  UNL1        0.0029
     18 C          -4.7422   -1.1936    1.5379 C.ar    1  UNL1       -0.0519
     19 C          -5.9919   -0.6961    1.1090 C.ar    1  UNL1       -0.0520
     20 C          -5.8144    0.2303    0.0964 C.ar    1  UNL1        0.0001
     21 C          -6.8234    0.9037   -0.5424 C.ar    1  UNL1        0.0094
     22 N          -6.2262    1.7226   -1.4751 N.ar    1  UNL1       -0.3659
     23 C          -4.8569    1.5731   -1.4313 C.ar    1  UNL1        0.0101
     24 C          -4.5659    0.6465   -0.4585 C.ar    1  UNL1        0.0092
     25 C          -3.2875    0.1686   -0.0533 C.ar    1  UNL1        0.0201
     26 C           0.3291    0.1959   -0.3920 C.ar    1  UNL1       -0.0070
     27 C           1.6554   -0.3281    0.0587 C.3     1  UNL1        0.0013
     28 C           4.8533   -0.4766   -0.0606 C.ar    1  UNL1       -0.0220
     29 H           4.1950   -1.0378    1.9145 H       1  UNL1        0.0356
     30 H           4.0907   -2.3493    0.6884 H       1  UNL1        0.0356
     31 H           6.3968   -2.5937    2.0724 H       1  UNL1        0.0575
     32 H           8.0485   -1.2855    0.5326 H       1  UNL1        0.0621
     33 H           7.5047    0.8435   -1.6984 H       1  UNL1        0.0699
     34 H           2.3376    1.9264   -2.4280 H       1  UNL1        0.0627
     35 H          -0.4796    2.4604   -2.7617 H       1  UNL1        0.0836
     36 H          -2.3075   -2.0856    2.2903 H       1  UNL1        0.0836
     37 H          -4.7577   -1.9360    2.3386 H       1  UNL1        0.0624
     38 H          -6.9381   -1.0082    1.5260 H       1  UNL1        0.0624
     39 H          -7.8988    0.8854   -0.4307 H       1  UNL1        0.0813
     40 H          -6.7180    2.3449   -2.1031 H       1  UNL1        0.1648
     41 H          -4.2262    2.1438   -2.0997 H       1  UNL1        0.0813
     42 H           1.8344   -0.0875    1.1114 H       1  UNL1        0.0363
     43 H           1.7295   -1.4065   -0.1134 H       1  UNL1        0.0363
@<TRIPOS>BOND
     1     1     2    1
     2     2     3    2
     3     3     4    1
     4     4     5   ar
     5     5     6   ar
     6     6     7   ar
     7     7     8    1
     8     8     9    2
     9     9    10    1
    10    10    11   ar
    11    11    12   ar
    12    12    13   ar
    13    13    14   ar
    14    14    15   ar
    15    15    16   ar
    16    16    17   ar
    17    17    18   ar
    18    18    19   ar
    19    19    20   ar
    20    20    21   ar
    21    21    22   ar
    22    22    23   ar
    23    23    24   ar
    24    24    25   ar
    25    14    26   ar
    26    26    27    1
    27     7    28   ar
    28    28     1    1
    29    28     4   ar
    30    27     8    1
    31    26    10   ar
    32    25    13   ar
    33    25    17   ar
    34    24    20   ar
    35     1    29    1
    36     1    30    1
    37     2    31    1
    38     3    32    1
    39     5    33    1
    40     9    34    1
    41    11    35    1
    42    16    36    1
    43    18    37    1
    44    19    38    1
    45    21    39    1
    46    22    40    1
    47    23    41    1
    48    27    42    1
    49    27    43    1
