@<TRIPOS>MOLECULE
*****
 44 51 0 0 0
SMALL
GASTEIGER

@<TRIPOS>ATOM
      1 C           5.3017   -0.1949    1.7455 C.3     1  UNL1       -0.0074
      2 C           6.8282   -0.2794    1.6527 C.2     1  UNL1       -0.0791
      3 C           7.2436   -0.2544    0.3664 C.2     1  UNL1       -0.0574
      4 C           6.1151   -0.1570   -0.4836 C.ar    1  UNL1       -0.0141
      5 C           5.9143   -0.0944   -1.8270 C.ar    1  UNL1       -0.0162
      6 S           4.2219    0.0150   -2.1435 S.2     1  UNL1       -0.0927
      7 C           3.7949   -0.0242   -0.4592 C.ar    1  UNL1        0.0585
      8 C           2.4153    0.0396   -0.0429 C.ar    1  UNL1        0.1446
      9 C           1.9122    0.0226    1.2517 C.ar    1  UNL1        0.0088
     10 C           0.5183    0.1085    1.0786 C.ar    1  UNL1        0.0867
     11 N          -0.6711    0.1531    1.7451 N.ar    1  UNL1       -0.3510
     12 C          -1.6982    0.2449    0.8130 C.ar    1  UNL1        0.0611
     13 C          -1.1469    0.2585   -0.4733 C.ar    1  UNL1        0.0510
     14 C           0.2420    0.1705   -0.2333 C.ar    1  UNL1        0.1614
     15 O           1.3857    0.1308   -0.9613 O.2     1  UNL1       -0.4521
     16 C          -1.9960    0.3468   -1.6007 C.ar    1  UNL1       -0.0046
     17 C          -1.4052    0.3578   -2.8829 C.ar    1  UNL1       -0.0533
     18 C          -2.1950    0.4431   -4.0237 C.ar    1  UNL1       -0.0611
     19 C          -3.5741    0.5179   -3.8959 C.ar    1  UNL1       -0.0611
     20 C          -4.1664    0.5074   -2.6264 C.ar    1  UNL1       -0.0534
     21 C          -3.4078    0.4219   -1.4303 C.ar    1  UNL1       -0.0093
     22 C          -3.9732    0.4081   -0.1083 C.ar    1  UNL1       -0.0060
     23 C          -5.3867    0.4807    0.1437 C.ar    1  UNL1       -0.0512
     24 C          -6.0021    0.4716    1.4145 C.ar    1  UNL1       -0.0329
     25 C          -5.1367    0.3829    2.5215 C.ar    1  UNL1        0.1006
     26 N          -5.5171    0.3596    3.8077 N.ar    1  UNL1       -0.1908
     27 S          -4.1284    0.2482    4.7056 S.2     1  UNL1        0.1165
     28 N          -2.9840    0.2245    3.5037 N.ar    1  UNL1       -0.1901
     29 C          -3.6489    0.3038    2.3322 C.ar    1  UNL1        0.1095
     30 C          -3.0878    0.3178    1.0149 C.ar    1  UNL1        0.0349
     31 C           4.9361   -0.1188    0.3002 C.ar    1  UNL1       -0.0188
     32 H           4.9984    0.7033    2.2907 H       1  UNL1        0.0356
     33 H           4.8949   -1.0910    2.2224 H       1  UNL1        0.0356
     34 H           7.4749   -0.3495    2.5147 H       1  UNL1        0.0575
     35 H           8.2697   -0.3007    0.0297 H       1  UNL1        0.0621
     36 H           6.6322   -0.1051   -2.6345 H       1  UNL1        0.0699
     37 H           2.4665   -0.0417    2.1747 H       1  UNL1        0.0676
     38 H          -0.7814    0.1240    2.7522 H       1  UNL1        0.1660
     39 H          -0.3246    0.2998   -3.0005 H       1  UNL1        0.0624
     40 H          -1.7325    0.4510   -5.0069 H       1  UNL1        0.0618
     41 H          -4.1981    0.5848   -4.7837 H       1  UNL1        0.0618
     42 H          -5.2503    0.5687   -2.6006 H       1  UNL1        0.0624
     43 H          -6.0764    0.5500   -0.6971 H       1  UNL1        0.0624
     44 H          -7.0773    0.5293    1.5342 H       1  UNL1        0.0640
@<TRIPOS>BOND
     1     1     2    1
     2     2     3    2
     3     3     4    1
     4     4     5   ar
     5     5     6   ar
     6     6     7   ar
     7     7     8    1
     8     8     9   ar
     9     9    10   ar
    10    10    11   ar
    11    11    12   ar
    12    12    13   ar
    13    13    14   ar
    14    14    15   ar
    15    13    16   ar
    16    16    17   ar
    17    17    18   ar
    18    18    19   ar
    19    19    20   ar
    20    20    21   ar
    21    21    22   ar
    22    22    23   ar
    23    23    24   ar
    24    24    25   ar
    25    25    26   ar
    26    26    27   ar
    27    27    28   ar
    28    28    29   ar
    29    29    30   ar
    30     7    31   ar
    31    31     1    1
    32    31     4   ar
    33    15     8   ar
    34    21    16   ar
    35    30    22   ar
    36    14    10   ar
    37    29    25   ar
    38    30    12   ar
    39     1    32    1
    40     1    33    1
    41     2    34    1
    42     3    35    1
    43     5    36    1
    44     9    37    1
    45    11    38    1
    46    17    39    1
    47    18    40    1
    48    19    41    1
    49    20    42    1
    50    23    43    1
    51    24    44    1
