@<TRIPOS>MOLECULE
*****
 37 42 0 0 0
SMALL
GASTEIGER

@<TRIPOS>ATOM
      1 C           4.6219    1.4475    1.2596 C.3     1  UNL1        0.0000
      2 C           5.9927    0.8040    1.2451 C.2     1  UNL1        0.0000
      3 C           5.9676   -0.4524    0.7658 C.2     1  UNL1        0.0000
      4 C           4.5906   -0.7632    0.4185 C.ar    1  UNL1        0.0000
      5 N           4.1899   -1.9371   -0.0926 N.ar    1  UNL1        0.0000
      6 C           2.8642   -2.0775   -0.3673 C.ar    1  UNL1        0.0000
      7 C           1.9665   -1.0284   -0.1197 C.ar    1  UNL1        0.0000
      8 C           2.4631    0.1680    0.4157 C.ar    1  UNL1        0.0000
      9 O           1.4708    1.0927    0.5990 O.2     1  UNL1        0.0000
     10 C           0.3035    0.5095    0.1835 C.ar    1  UNL1        0.0000
     11 C          -0.9790    1.1009    0.1910 C.ar    1  UNL1        0.0000
     12 C          -2.0953    0.3572   -0.2649 C.ar    1  UNL1        0.0000
     13 C          -3.4431    0.8839   -0.2954 C.2     1  UNL1        0.0000
     14 C          -3.9145    1.8262   -1.1372 C.2     1  UNL1        0.0000
     15 C          -5.3001    2.2124   -0.9188 C.2     1  UNL1        0.0000
     16 C          -5.9144    1.5924    0.1054 C.2     1  UNL1        0.0000
     17 SI         -4.7613    0.3755    0.9622 Si      1  UNL1        0.0000
     18 C          -1.7604   -0.9306   -0.7081 C.ar    1  UNL1        0.0000
     19 C          -2.5883   -1.8897   -1.2476 C.ar    1  UNL1        0.0000
     20 O          -1.8738   -3.0216   -1.5607 O.2     1  UNL1        0.0000
     21 C          -0.5607   -2.7906   -1.2326 C.ar    1  UNL1        0.0000
     22 C          -0.4874   -1.5330   -0.7264 C.ar    1  UNL1        0.0000
     23 C           0.6032   -0.7678   -0.2482 C.ar    1  UNL1        0.0000
     24 C           3.7967    0.3361    0.7018 C.ar    1  UNL1        0.0000
     25 H           4.3164    1.7009    2.2785 H       1  UNL1        0.0000
     26 H           4.5940    2.3299    0.6145 H       1  UNL1        0.0000
     27 H           6.8848    1.3110    1.5855 H       1  UNL1        0.0000
     28 H           6.7869   -1.1400    0.6424 H       1  UNL1        0.0000
     29 H           2.5640   -3.0338   -0.7795 H       1  UNL1        0.0000
     30 H          -1.0985    2.1186    0.5516 H       1  UNL1        0.0000
     31 H          -3.3318    2.2865   -1.9265 H       1  UNL1        0.0000
     32 H          -5.7773    2.9525   -1.5497 H       1  UNL1        0.0000
     33 H          -6.9316    1.7339    0.4351 H       1  UNL1        0.0000
     34 H          -5.2071   -1.0287    0.7818 H       1  UNL1        0.0000
     35 H          -4.4320    0.7980    2.3461 H       1  UNL1        0.0000
     36 H          -3.6443   -1.9422   -1.4743 H       1  UNL1        0.0000
     37 H           0.1240   -3.6011   -1.4336 H       1  UNL1        0.0000
@<TRIPOS>BOND
     1     1     2    1
     2     2     3    2
     3     3     4    1
     4     4     5   ar
     5     5     6   ar
     6     6     7   ar
     7     7     8   ar
     8     8     9   ar
     9     9    10   ar
    10    10    11   ar
    11    11    12   ar
    12    12    13    1
    13    13    14    2
    14    14    15    1
    15    15    16    2
    16    16    17    1
    17    12    18   ar
    18    18    19   ar
    19    19    20   ar
    20    20    21   ar
    21    21    22   ar
    22    22    23   ar
    23     8    24   ar
    24    24     1    1
    25    24     4   ar
    26    23     7   ar
    27    23    10   ar
    28    17    13    1
    29    22    18   ar
    30     1    25    1
    31     1    26    1
    32     2    27    1
    33     3    28    1
    34     6    29    1
    35    11    30    1
    36    14    31    1
    37    15    32    1
    38    16    33    1
    39    17    34    1
    40    17    35    1
    41    19    36    1
    42    21    37    1
