@<TRIPOS>MOLECULE
*****
 47 54 0 0 0
SMALL
GASTEIGER

@<TRIPOS>ATOM
      1 SI          1.5972   -1.9477   -3.4985 Si      1  UNL1        0.0000
      2 C           2.7082   -1.3386   -2.1276 C.2     1  UNL1        0.0000
      3 C           2.0175   -0.7216   -1.1505 C.ar    1  UNL1        0.0000
      4 C           2.5153   -0.1489    0.0643 C.ar    1  UNL1        0.0000
      5 C           1.5867    0.1511    1.0541 C.ar    1  UNL1        0.0000
      6 O           2.1779    0.5688    2.2056 O.2     1  UNL1        0.0000
      7 C           3.5201    0.6161    1.9489 C.ar    1  UNL1        0.0000
      8 C           4.5049    0.9986    2.8809 C.ar    1  UNL1        0.0000
      9 C           5.8525    1.0591    2.4848 C.ar    1  UNL1        0.0000
     10 C           6.0514    0.7652    1.1352 C.ar    1  UNL1        0.0000
     11 C           7.3018    0.8489    0.5649 C.ar    1  UNL1        0.0000
     12 S           7.2567    0.5280   -1.1290 S.2     1  UNL1        0.0000
     13 C           5.5500    0.2777   -1.1120 C.ar    1  UNL1        0.0000
     14 C           5.0831    0.3837    0.1642 C.ar    1  UNL1        0.0000
     15 C           3.7328    0.2519    0.6258 C.ar    1  UNL1        0.0000
     16 C           0.1366    0.0774    0.9623 C.ar    1  UNL1        0.0000
     17 N          -0.5886    0.4707    2.0342 N.ar    1  UNL1        0.0000
     18 C          -1.9329    0.4352    1.8883 C.ar    1  UNL1        0.0000
     19 C          -2.6015    0.0333    0.7296 C.ar    1  UNL1        0.0000
     20 C          -1.8065   -0.3730   -0.3544 C.ar    1  UNL1        0.0000
     21 C          -0.4120   -0.3574   -0.2581 C.ar    1  UNL1        0.0000
     22 C           0.5238   -0.7919   -1.3352 C.ar    1  UNL1        0.0000
     23 C           0.1346   -1.3638   -2.4950 C.2     1  UNL1        0.0000
     24 C          -4.0541    0.0179    0.6625 C.ar    1  UNL1        0.0000
     25 C          -4.9015   -0.7112    1.5433 C.ar    1  UNL1        0.0000
     26 C          -6.3422   -0.7282    1.4686 C.ar    1  UNL1        0.0000
     27 C          -7.0985   -0.0166    0.5101 C.ar    1  UNL1        0.0000
     28 C          -6.2552    0.6928   -0.3325 C.ar    1  UNL1        0.0000
     29 C          -6.6253    1.5056   -1.3697 C.ar    1  UNL1        0.0000
     30 O          -5.5072    2.0412   -1.9488 O.2     1  UNL1        0.0000
     31 C          -4.4195    1.5634   -1.2684 C.ar    1  UNL1        0.0000
     32 C          -4.8296    0.7156   -0.2703 C.ar    1  UNL1        0.0000
     33 H           1.6295   -3.4223   -3.6404 H       1  UNL1        0.0000
     34 H           1.7686   -1.1720   -4.7493 H       1  UNL1        0.0000
     35 H           3.7624   -1.5396   -2.1744 H       1  UNL1        0.0000
     36 H           4.2146    1.2503    3.8966 H       1  UNL1        0.0000
     37 H           6.6365    1.3521    3.1726 H       1  UNL1        0.0000
     38 H           8.2439    1.1020    1.0317 H       1  UNL1        0.0000
     39 H           5.0360    0.1090   -2.0423 H       1  UNL1        0.0000
     40 H          -2.4846    0.7638    2.7668 H       1  UNL1        0.0000
     41 H          -2.2903   -0.7116   -1.2665 H       1  UNL1        0.0000
     42 H          -0.8665   -1.5607   -2.8420 H       1  UNL1        0.0000
     43 H          -4.4406   -1.3141    2.3287 H       1  UNL1        0.0000
     44 H          -6.8792   -1.3324    2.2019 H       1  UNL1        0.0000
     45 H          -8.1779   -0.0339    0.4647 H       1  UNL1        0.0000
     46 H          -7.5663    1.8077   -1.8069 H       1  UNL1        0.0000
     47 H          -3.4628    1.9247   -1.6188 H       1  UNL1        0.0000
@<TRIPOS>BOND
     1     1     2    1
     2     2     3    2
     3     3     4   ar
     4     4     5   ar
     5     5     6   ar
     6     6     7   ar
     7     7     8   ar
     8     8     9   ar
     9     9    10   ar
    10    10    11   ar
    11    11    12   ar
    12    12    13   ar
    13    13    14   ar
    14    14    15   ar
    15     5    16   ar
    16    16    17   ar
    17    17    18   ar
    18    18    19   ar
    19    19    20   ar
    20    20    21   ar
    21    21    22   ar
    22    22    23    2
    23    19    24    1
    24    24    25   ar
    25    25    26   ar
    26    26    27   ar
    27    27    28   ar
    28    28    29   ar
    29    29    30   ar
    30    30    31   ar
    31    31    32   ar
    32    23     1    1
    33    32    24   ar
    34    22     3   ar
    35    32    28   ar
    36    15     4   ar
    37    21    16   ar
    38    15     7   ar
    39    14    10   ar
    40     1    33    1
    41     1    34    1
    42     2    35    1
    43     8    36    1
    44     9    37    1
    45    11    38    1
    46    13    39    1
    47    18    40    1
    48    20    41    1
    49    23    42    1
    50    25    43    1
    51    26    44    1
    52    27    45    1
    53    29    46    1
    54    31    47    1
