@<TRIPOS>MOLECULE
*****
 33 37 0 0 0
SMALL
GASTEIGER

@<TRIPOS>ATOM
      1 C           4.2048   -1.3868    0.4853 C.3     1  UNL1        0.0000
      2 C           5.5144   -0.6302    0.4561 C.2     1  UNL1        0.0000
      3 C           5.3587    0.6536    0.0913 C.2     1  UNL1        0.0000
      4 C           3.9439    0.8676   -0.1537 C.ar    1  UNL1        0.0000
      5 N           3.4155    2.0420   -0.5390 N.ar    1  UNL1        0.0000
      6 C           2.0692    2.0274   -0.7148 C.ar    1  UNL1        0.0000
      7 C           1.2742    0.8988   -0.5162 C.ar    1  UNL1        0.0000
      8 C          -0.1861    0.8323   -0.6871 C.2     1  UNL1        0.0000
      9 C          -0.7092   -0.3863   -0.4373 C.2     1  UNL1        0.0000
     10 SI          0.5999   -1.6466    0.0770 Si      1  UNL1        0.0000
     11 C           1.8847   -0.3100   -0.1100 C.ar    1  UNL1        0.0000
     12 C           3.2478   -0.3180    0.0725 C.ar    1  UNL1        0.0000
     13 C          -2.0956   -0.6718   -0.5017 C.ar    1  UNL1        0.0000
     14 S          -2.6996   -2.1039   -1.2995 S.2     1  UNL1        0.0000
     15 C          -4.3506   -1.7293   -0.9749 C.ar    1  UNL1        0.0000
     16 C          -4.4186   -0.5552   -0.2945 C.ar    1  UNL1        0.0000
     17 C          -5.4545    0.2482    0.2410 C.2     1  UNL1        0.0000
     18 C          -4.9108    1.3343    0.8356 C.2     1  UNL1        0.0000
     19 C          -3.3827    1.3233    0.7240 C.3     1  UNL1        0.0000
     20 C          -3.1688    0.0506   -0.0293 C.ar    1  UNL1        0.0000
     21 H           3.9905   -1.7507    1.4942 H       1  UNL1        0.0000
     22 H           4.2190   -2.2127   -0.2315 H       1  UNL1        0.0000
     23 H           6.4638   -1.0841    0.7032 H       1  UNL1        0.0000
     24 H           6.1084    1.4186   -0.0150 H       1  UNL1        0.0000
     25 H           1.6387    2.9739   -1.0276 H       1  UNL1        0.0000
     26 H          -0.7498    1.7039   -0.9928 H       1  UNL1        0.0000
     27 H           0.8004   -2.7408   -0.9079 H       1  UNL1        0.0000
     28 H           0.4659   -2.0874    1.4898 H       1  UNL1        0.0000
     29 H          -5.1456   -2.3845   -1.3010 H       1  UNL1        0.0000
     30 H          -6.5092    0.0198    0.1804 H       1  UNL1        0.0000
     31 H          -5.4659    2.1181    1.3290 H       1  UNL1        0.0000
     32 H          -2.9208    1.2919    1.7147 H       1  UNL1        0.0000
     33 H          -3.0321    2.1942    0.1635 H       1  UNL1        0.0000
@<TRIPOS>BOND
     1     1     2    1
     2     2     3    2
     3     3     4    1
     4     4     5   ar
     5     5     6   ar
     6     6     7   ar
     7     7     8    1
     8     8     9    2
     9     9    10    1
    10    10    11    1
    11    11    12   ar
    12     9    13    1
    13    13    14   ar
    14    14    15   ar
    15    15    16   ar
    16    16    17    1
    17    17    18    2
    18    18    19    1
    19    19    20    1
    20    12     1    1
    21    20    13   ar
    22    12     4   ar
    23    20    16   ar
    24    11     7   ar
    25     1    21    1
    26     1    22    1
    27     2    23    1
    28     3    24    1
    29     6    25    1
    30     8    26    1
    31    10    27    1
    32    10    28    1
    33    15    29    1
    34    17    30    1
    35    18    31    1
    36    19    32    1
    37    19    33    1
