@<TRIPOS>MOLECULE
*****
 32 36 0 0 0
SMALL
GASTEIGER

@<TRIPOS>ATOM
      1 C          -4.0000    1.3191   -0.5363 C.3     1  UNL1       -0.0068
      2 C          -5.3451    0.6667   -0.2974 C.2     1  UNL1       -0.0776
      3 C          -5.2330   -0.5983    0.1438 C.2     1  UNL1       -0.0396
      4 C          -3.8162   -0.9016    0.2385 C.ar    1  UNL1        0.0673
      5 N          -3.3179   -2.0837    0.6477 N.ar    1  UNL1       -0.2547
      6 C          -1.9610   -2.1543    0.6614 C.ar    1  UNL1        0.0357
      7 C          -1.1462   -1.0959    0.2850 C.ar    1  UNL1       -0.0028
      8 C           0.2998   -0.9759    0.2314 C.2     1  UNL1       -0.0482
      9 C           0.6240    0.2612   -0.2038 C.2     1  UNL1       -0.0266
     10 C          -0.6437    1.0795   -0.4795 C.3     1  UNL1       -0.0003
     11 C          -1.7164    0.1068   -0.1309 C.ar    1  UNL1       -0.0290
     12 C          -3.0800    0.2122   -0.1568 C.ar    1  UNL1       -0.0142
     13 C           1.9898    0.6807   -0.3614 C.ar    1  UNL1        0.0431
     14 S           2.2914    2.3054   -0.9249 S.2     1  UNL1       -0.0926
     15 C           3.9888    2.1299   -0.8803 C.ar    1  UNL1        0.0038
     16 C           4.3476    0.8817   -0.4532 C.ar    1  UNL1        0.0968
     17 N           5.6489    0.4977   -0.3332 N.ar    1  UNL1       -0.2514
     18 C           5.7339   -0.7850    0.1082 C.ar    1  UNL1        0.0464
     19 C           4.6414   -1.6068    0.4019 C.ar    1  UNL1        0.0464
     20 N           3.3350   -1.2453    0.2897 N.ar    1  UNL1       -0.2508
     21 C           3.2071    0.0429   -0.1531 C.ar    1  UNL1        0.1036
     22 H          -3.8831    1.5963   -1.5877 H       1  UNL1        0.0356
     23 H          -3.8695    2.1903    0.1118 H       1  UNL1        0.0356
     24 H          -6.2847    1.1733   -0.4669 H       1  UNL1        0.0576
     25 H          -6.0138   -1.2957    0.3939 H       1  UNL1        0.0636
     26 H          -1.5467   -3.1019    0.9893 H       1  UNL1        0.0836
     27 H           0.9576   -1.7842    0.5088 H       1  UNL1        0.0627
     28 H          -0.6926    1.9605    0.1682 H       1  UNL1        0.0362
     29 H          -0.7062    1.3657   -1.5341 H       1  UNL1        0.0362
     30 H           4.6409    2.9421   -1.1666 H       1  UNL1        0.0715
     31 H           6.7463   -1.1604    0.2279 H       1  UNL1        0.0845
     32 H           4.8039   -2.6229    0.7506 H       1  UNL1        0.0845
@<TRIPOS>BOND
     1     1     2    1
     2     2     3    2
     3     3     4    1
     4     4     5   ar
     5     5     6   ar
     6     6     7   ar
     7     7     8    1
     8     8     9    2
     9     9    10    1
    10    10    11    1
    11    11    12   ar
    12     9    13    1
    13    13    14   ar
    14    14    15   ar
    15    15    16   ar
    16    16    17   ar
    17    17    18   ar
    18    18    19   ar
    19    19    20   ar
    20    20    21   ar
    21    12     1    1
    22    21    13   ar
    23    12     4   ar
    24    21    16   ar
    25    11     7   ar
    26     1    22    1
    27     1    23    1
    28     2    24    1
    29     3    25    1
    30     6    26    1
    31     8    27    1
    32    10    28    1
    33    10    29    1
    34    15    30    1
    35    18    31    1
    36    19    32    1
