@<TRIPOS>MOLECULE
*****
 32 36 0 0 0
SMALL
GASTEIGER

@<TRIPOS>ATOM
      1 C          -4.4953   -0.6703   -0.3382 C.3     1  UNL1       -0.0065
      2 C          -5.4163    0.5062   -0.5707 C.2     1  UNL1       -0.0776
      3 C          -4.7517    1.6714   -0.6351 C.2     1  UNL1       -0.0396
      4 C          -3.3418    1.3778   -0.4530 C.ar    1  UNL1        0.0676
      5 N          -2.3790    2.3074   -0.4590 N.ar    1  UNL1       -0.2546
      6 C          -1.1319    1.8131   -0.2709 C.ar    1  UNL1        0.0379
      7 C          -0.8285    0.4464   -0.0814 C.ar    1  UNL1        0.0244
      8 C           0.4927   -0.0348    0.1130 C.ar    1  UNL1        0.0562
      9 N           1.7035    0.6237    0.1644 N.ar    1  UNL1       -0.3520
     10 C           2.7357   -0.2583    0.3746 C.ar    1  UNL1        0.0728
     11 C           2.1751   -1.5168    0.4608 C.ar    1  UNL1       -0.0266
     12 C           0.7687   -1.3907    0.2984 C.ar    1  UNL1        0.0010
     13 C          -0.2946   -2.3133    0.2930 C.ar    1  UNL1       -0.0520
     14 C          -1.6069   -1.8618    0.1030 C.ar    1  UNL1       -0.0530
     15 C          -1.8821   -0.4983   -0.0832 C.ar    1  UNL1       -0.0090
     16 C          -3.1632    0.0074   -0.2762 C.ar    1  UNL1       -0.0105
     17 C           4.1133    0.1264    0.4751 C.ar    1  UNL1        0.1243
     18 N           5.0664   -0.7585    0.6773 N.ar    1  UNL1       -0.2459
     19 C           6.2915   -0.1240    0.7329 C.ar    1  UNL1        0.0355
     20 C           6.2605    1.2436    0.5721 C.ar    1  UNL1       -0.0042
     21 S           4.6425    1.7588    0.3426 S.2     1  UNL1       -0.0742
     22 H          -4.5483   -1.3739   -1.1739 H       1  UNL1        0.0356
     23 H          -4.7354   -1.1688    0.6054 H       1  UNL1        0.0356
     24 H          -6.4879    0.4066   -0.6719 H       1  UNL1        0.0576
     25 H          -5.1437    2.6618   -0.7906 H       1  UNL1        0.0636
     26 H          -0.3541    2.5704   -0.2764 H       1  UNL1        0.0836
     27 H           1.8231    1.6212    0.0620 H       1  UNL1        0.1660
     28 H           2.7281   -2.4337    0.6247 H       1  UNL1        0.0645
     29 H          -0.0996   -3.3729    0.4357 H       1  UNL1        0.0624
     30 H          -2.4112   -2.5938    0.1028 H       1  UNL1        0.0624
     31 H           7.1854   -0.7140    0.8949 H       1  UNL1        0.0835
     32 H           7.0851    1.9415    0.5784 H       1  UNL1        0.0709
@<TRIPOS>BOND
     1     1     2    1
     2     2     3    2
     3     3     4    1
     4     4     5   ar
     5     5     6   ar
     6     6     7   ar
     7     7     8   ar
     8     8     9   ar
     9     9    10   ar
    10    10    11   ar
    11    11    12   ar
    12    12    13   ar
    13    13    14   ar
    14    14    15   ar
    15    15    16   ar
    16    10    17    1
    17    17    18   ar
    18    18    19   ar
    19    19    20   ar
    20    20    21   ar
    21    16     1    1
    22    21    17   ar
    23    16     4   ar
    24    15     7   ar
    25    12     8   ar
    26     1    22    1
    27     1    23    1
    28     2    24    1
    29     3    25    1
    30     6    26    1
    31     9    27    1
    32    11    28    1
    33    13    29    1
    34    14    30    1
    35    19    31    1
    36    20    32    1
