@<TRIPOS>MOLECULE
*****
 42 47 0 0 0
SMALL
GASTEIGER

@<TRIPOS>ATOM
      1 C          -4.8299   -0.3974   -0.0009 C.3     1  UNL1       -0.0065
      2 C          -5.9399    0.6218    0.0495 C.2     1  UNL1       -0.0776
      3 C          -5.4684    1.8742    0.0359 C.2     1  UNL1       -0.0396
      4 C          -4.0238    1.7827   -0.0240 C.ar    1  UNL1        0.0676
      5 N          -3.2455    2.8521   -0.0511 N.ar    1  UNL1       -0.2547
      6 C          -1.9288    2.5551   -0.1065 C.ar    1  UNL1        0.0366
      7 C          -1.3280    1.2652   -0.1376 C.ar    1  UNL1        0.0088
      8 C           0.0952    1.0962   -0.1983 C.ar    1  UNL1       -0.0081
      9 C           0.9996    2.1967   -0.2240 C.ar    1  UNL1       -0.0528
     10 C           2.3862    2.0520   -0.2886 C.ar    1  UNL1       -0.0520
     11 C           2.9429    0.7894   -0.3373 C.ar    1  UNL1       -0.0011
     12 C           2.0767   -0.3102   -0.3020 C.ar    1  UNL1       -0.0443
     13 C           0.6524   -0.2058   -0.2329 C.ar    1  UNL1       -0.0089
     14 C          -0.2093   -1.3530   -0.1973 C.ar    1  UNL1       -0.0095
     15 C           0.3087   -2.6815   -0.2205 C.ar    1  UNL1       -0.0534
     16 C          -0.4908   -3.8202   -0.1904 C.ar    1  UNL1       -0.0611
     17 C          -1.8545   -3.6711   -0.1351 C.ar    1  UNL1       -0.0611
     18 C          -2.3981   -2.3863   -0.1091 C.ar    1  UNL1       -0.0534
     19 C          -1.6246   -1.1909   -0.1370 C.ar    1  UNL1       -0.0092
     20 C          -2.2030    0.1388   -0.1072 C.ar    1  UNL1       -0.0027
     21 C          -3.5904    0.4559   -0.0483 C.ar    1  UNL1       -0.0100
     22 C           4.3926    0.6177   -0.4167 C.ar    1  UNL1        0.0465
     23 C           5.4173    1.3093    0.2090 C.ar    1  UNL1       -0.0364
     24 C           6.6496    0.7592   -0.2186 C.ar    1  UNL1       -0.0438
     25 C           6.3575   -0.2481   -1.1073 C.ar    1  UNL1        0.0022
     26 N           4.9947   -0.3228   -1.2259 N.ar    1  UNL1       -0.3607
     27 H          -4.9365   -1.0020   -0.9063 H       1  UNL1        0.0356
     28 H          -4.8618   -1.0099    0.9050 H       1  UNL1        0.0356
     29 H          -6.9876    0.3600    0.0916 H       1  UNL1        0.0576
     30 H          -6.0144    2.8014    0.0629 H       1  UNL1        0.0636
     31 H          -1.3327    3.4619   -0.1275 H       1  UNL1        0.0836
     32 H           0.6481    3.2241   -0.1953 H       1  UNL1        0.0624
     33 H           3.0141    2.9393   -0.3137 H       1  UNL1        0.0624
     34 H           2.5498   -1.2866   -0.3066 H       1  UNL1        0.0630
     35 H           1.3763   -2.8731   -0.2598 H       1  UNL1        0.0624
     36 H          -0.0416   -4.8090   -0.2087 H       1  UNL1        0.0618
     37 H          -2.5043   -4.5415   -0.1100 H       1  UNL1        0.0618
     38 H          -3.4766   -2.3636   -0.0638 H       1  UNL1        0.0624
     39 H           5.2892    2.1219    0.9130 H       1  UNL1        0.0639
     40 H           7.6406    1.0687    0.0869 H       1  UNL1        0.0633
     41 H           6.9995   -0.9130   -1.6692 H       1  UNL1        0.0807
     42 H           4.4994   -0.9580   -1.8369 H       1  UNL1        0.1653
@<TRIPOS>BOND
     1     1     2    1
     2     2     3    2
     3     3     4    1
     4     4     5   ar
     5     5     6   ar
     6     6     7   ar
     7     7     8   ar
     8     8     9   ar
     9     9    10   ar
    10    10    11   ar
    11    11    12   ar
    12    12    13   ar
    13    13    14   ar
    14    14    15   ar
    15    15    16   ar
    16    16    17   ar
    17    17    18   ar
    18    18    19   ar
    19    19    20   ar
    20    20    21   ar
    21    11    22    1
    22    22    23   ar
    23    23    24   ar
    24    24    25   ar
    25    25    26   ar
    26    21     1    1
    27    26    22   ar
    28    21     4   ar
    29    20     7   ar
    30    13     8   ar
    31    19    14   ar
    32     1    27    1
    33     1    28    1
    34     2    29    1
    35     3    30    1
    36     6    31    1
    37     9    32    1
    38    10    33    1
    39    12    34    1
    40    15    35    1
    41    16    36    1
    42    17    37    1
    43    18    38    1
    44    23    39    1
    45    24    40    1
    46    25    41    1
    47    26    42    1
