@<TRIPOS>MOLECULE
*****
 39 45 0 0 0
SMALL
GASTEIGER

@<TRIPOS>ATOM
      1 C          -5.0607   -0.8420    0.7692 C.3     1  UNL1       -0.0065
      2 C          -6.4167   -0.3659    0.2984 C.2     1  UNL1       -0.0776
      3 C          -6.3258    0.6094   -0.6205 C.2     1  UNL1       -0.0396
      4 C          -4.9147    0.8663   -0.8405 C.ar    1  UNL1        0.0676
      5 N          -4.4427    1.7789   -1.6945 N.ar    1  UNL1       -0.2547
      6 C          -3.0894    1.8484   -1.7395 C.ar    1  UNL1        0.0360
      7 C          -2.2050    1.0580   -0.9784 C.ar    1  UNL1        0.0011
      8 C          -0.8040    1.1844   -1.0752 C.ar    1  UNL1       -0.0448
      9 C           0.0662    0.3906   -0.3112 C.ar    1  UNL1       -0.0145
     10 C           1.4757    0.5419   -0.4299 C.ar    1  UNL1       -0.0440
     11 C           2.4418   -0.2085    0.2906 C.ar    1  UNL1        0.0145
     12 C           3.8811   -0.0240    0.1391 C.ar    1  UNL1        0.0305
     13 C           4.7897    0.1175    1.2015 C.ar    1  UNL1        0.0375
     14 N           6.1511    0.3067    1.1416 N.ar    1  UNL1       -0.2604
     15 C           6.7925    0.3624   -0.0593 C.ar    1  UNL1        0.0557
     16 C           6.0194    0.2287   -1.2276 C.ar    1  UNL1        0.1185
     17 N           6.4723    0.2582   -2.4914 N.ar    1  UNL1       -0.1892
     18 S           5.1499    0.0431   -3.4685 S.2     1  UNL1        0.1165
     19 N           3.9450   -0.0770   -2.3357 N.ar    1  UNL1       -0.1901
     20 C           4.5267    0.0326   -1.1257 C.ar    1  UNL1        0.1105
     21 C           1.9016   -1.1727    1.1909 C.ar    1  UNL1        0.1083
     22 N           2.6004   -2.0066    1.9824 N.ar    1  UNL1       -0.1901
     23 S           1.5019   -2.9228    2.8163 S.2     1  UNL1        0.1165
     24 N           0.0814   -2.3064    2.2303 N.ar    1  UNL1       -0.1901
     25 C           0.4073   -1.3538    1.3373 C.ar    1  UNL1        0.1082
     26 C          -0.5097   -0.5574    0.5733 C.ar    1  UNL1        0.0109
     27 C          -1.9103   -0.6948    0.6806 C.ar    1  UNL1       -0.0438
     28 C          -2.7618    0.1099   -0.0921 C.ar    1  UNL1       -0.0103
     29 C          -4.1493    0.0282   -0.0372 C.ar    1  UNL1       -0.0105
     30 H          -4.9391   -0.6644    1.8416 H       1  UNL1        0.0356
     31 H          -4.9182   -1.9002    0.5316 H       1  UNL1        0.0356
     32 H          -7.3470   -0.7737    0.6681 H       1  UNL1        0.0576
     33 H          -7.1185    1.1326   -1.1271 H       1  UNL1        0.0636
     34 H          -2.7093    2.5920   -2.4367 H       1  UNL1        0.0836
     35 H          -0.3904    1.9193   -1.7658 H       1  UNL1        0.0630
     36 H           1.8456    1.2956   -1.1307 H       1  UNL1        0.0630
     37 H           4.4214    0.0905    2.2289 H       1  UNL1        0.0836
     38 H           7.8646    0.5064   -0.0559 H       1  UNL1        0.0852
     39 H          -2.3230   -1.4313    1.3676 H       1  UNL1        0.0630
@<TRIPOS>BOND
     1     1     2    1
     2     2     3    2
     3     3     4    1
     4     4     5   ar
     5     5     6   ar
     6     6     7   ar
     7     7     8   ar
     8     8     9   ar
     9     9    10   ar
    10    10    11   ar
    11    11    12    1
    12    12    13   ar
    13    13    14   ar
    14    14    15   ar
    15    15    16   ar
    16    16    17   ar
    17    17    18   ar
    18    18    19   ar
    19    19    20   ar
    20    11    21   ar
    21    21    22   ar
    22    22    23   ar
    23    23    24   ar
    24    24    25   ar
    25    25    26   ar
    26    26    27   ar
    27    27    28   ar
    28    28    29   ar
    29    29     1    1
    30    29     4   ar
    31    28     7   ar
    32    26     9   ar
    33    20    12   ar
    34    25    21   ar
    35    20    16   ar
    36     1    30    1
    37     1    31    1
    38     2    32    1
    39     3    33    1
    40     6    34    1
    41     8    35    1
    42    10    36    1
    43    13    37    1
    44    15    38    1
    45    27    39    1
