@<TRIPOS>MOLECULE
*****
 45 52 0 0 0
SMALL
GASTEIGER

@<TRIPOS>ATOM
      1 C           5.5581    0.2990    0.2993 C.3     1  UNL1       -0.0049
      2 C           6.1525    1.3025   -0.7071 C.2     1  UNL1       -0.0761
      3 C           5.2021    1.8584   -1.4953 C.2     1  UNL1       -0.0226
      4 C           3.9817    1.2911   -1.0858 C.ar    1  UNL1        0.1323
      5 O           2.6890    1.3998   -1.4396 O.2     1  UNL1       -0.4545
      6 C           1.9856    0.5447   -0.6185 C.ar    1  UNL1        0.1448
      7 C           2.8530   -0.1100    0.2654 C.ar    1  UNL1        0.0326
      8 C           4.1264    0.3912   -0.0611 C.ar    1  UNL1        0.0098
      9 C           2.3094   -1.0333    1.1915 C.ar    1  UNL1       -0.0062
     10 C           3.1894   -1.6916    2.0800 C.ar    1  UNL1       -0.0533
     11 C           2.7078   -2.6079    3.0079 C.ar    1  UNL1       -0.0611
     12 C           1.3493   -2.8764    3.0586 C.ar    1  UNL1       -0.0611
     13 C           0.4701   -2.2283    2.1820 C.ar    1  UNL1       -0.0534
     14 C           0.9057   -1.2837    1.2162 C.ar    1  UNL1       -0.0093
     15 C           0.0292   -0.5998    0.3012 C.ar    1  UNL1       -0.0054
     16 C          -1.4071   -0.8115    0.2858 C.ar    1  UNL1       -0.0445
     17 C          -2.3478   -0.1864   -0.5748 C.ar    1  UNL1       -0.0018
     18 C          -3.7743   -0.4300   -0.5082 C.ar    1  UNL1        0.0308
     19 S          -4.4187   -2.0208   -0.8230 S.2     1  UNL1       -0.0923
     20 C          -6.0639   -1.5311   -0.5688 C.ar    1  UNL1        0.0192
     21 C          -6.0539   -0.2225   -0.2587 C.ar    1  UNL1        0.1424
     22 O          -7.1364    0.5520    0.0217 O.2     1  UNL1       -0.4624
     23 C          -6.5018    1.7586    0.2593 C.ar    1  UNL1        0.0932
     24 C          -5.1077    1.7106    0.1276 C.ar    1  UNL1       -0.0150
     25 C          -4.8208    0.3792   -0.2228 C.ar    1  UNL1        0.0349
     26 C          -1.7462    0.7065   -1.4693 C.ar    1  UNL1       -0.0019
     27 C          -2.4295    1.4159   -2.4313 C.ar    1  UNL1       -0.0160
     28 S          -1.3835    2.4145   -3.3496 S.2     1  UNL1       -0.1038
     29 C          -0.0039    1.8809   -2.4789 C.ar    1  UNL1       -0.0159
     30 C          -0.3213    0.9625   -1.5026 C.ar    1  UNL1        0.0010
     31 C           0.6024    0.3332   -0.6330 C.ar    1  UNL1        0.0338
     32 H           5.7479    0.6241    1.3258 H       1  UNL1        0.0357
     33 H           5.9634   -0.7024    0.1304 H       1  UNL1        0.0357
     34 H           7.2085    1.5240   -0.7628 H       1  UNL1        0.0576
     35 H           5.3284    2.5863   -2.2808 H       1  UNL1        0.0651
     36 H           4.2578   -1.4979    2.0580 H       1  UNL1        0.0624
     37 H           3.3912   -3.1101    3.6871 H       1  UNL1        0.0618
     38 H           0.9628   -3.5924    3.7799 H       1  UNL1        0.0618
     39 H          -0.5793   -2.4909    2.2791 H       1  UNL1        0.0624
     40 H          -1.8365   -1.5090    1.0044 H       1  UNL1        0.0630
     41 H          -6.9089   -2.1982   -0.6545 H       1  UNL1        0.0731
     42 H          -7.1775    2.5649    0.5139 H       1  UNL1        0.1030
     43 H          -4.4244    2.5357    0.2708 H       1  UNL1        0.0655
     44 H          -3.4858    1.4135   -2.6620 H       1  UNL1        0.0700
     45 H           0.9580    2.2853   -2.7572 H       1  UNL1        0.0700
@<TRIPOS>BOND
     1     1     2    1
     2     2     3    2
     3     3     4    1
     4     4     5   ar
     5     5     6   ar
     6     6     7   ar
     7     7     8   ar
     8     7     9   ar
     9     9    10   ar
    10    10    11   ar
    11    11    12   ar
    12    12    13   ar
    13    13    14   ar
    14    14    15   ar
    15    15    16   ar
    16    16    17   ar
    17    17    18    1
    18    18    19   ar
    19    19    20   ar
    20    20    21   ar
    21    21    22   ar
    22    22    23   ar
    23    23    24   ar
    24    24    25   ar
    25    17    26   ar
    26    26    27   ar
    27    27    28   ar
    28    28    29   ar
    29    29    30   ar
    30    30    31   ar
    31     8     1    1
    32    14     9   ar
    33    31    15   ar
    34     8     4   ar
    35    25    18   ar
    36    30    26   ar
    37    31     6   ar
    38    25    21   ar
    39     1    32    1
    40     1    33    1
    41     2    34    1
    42     3    35    1
    43    10    36    1
    44    11    37    1
    45    12    38    1
    46    13    39    1
    47    16    40    1
    48    20    41    1
    49    23    42    1
    50    24    43    1
    51    27    44    1
    52    29    45    1
