@<TRIPOS>MOLECULE
*****
 49 56 0 0 0
SMALL
GASTEIGER

@<TRIPOS>ATOM
      1 C          -5.8857   -0.8386   -0.0763 C.3     1  UNL1       -0.0075
      2 C          -6.8411    0.2127    0.4965 C.2     1  UNL1       -0.0786
      3 C          -6.1771    1.3001    0.9443 C.2     1  UNL1       -0.0513
      4 C          -4.8110    1.0522    0.7092 C.ar    1  UNL1        0.0166
      5 S          -3.4383    1.9280    0.9975 S.2     1  UNL1       -0.0879
      6 C          -2.4052    0.6768    0.3235 C.ar    1  UNL1        0.0291
      7 C          -3.1821   -0.4216   -0.1187 C.ar    1  UNL1        0.0016
      8 C          -4.5709   -0.1585    0.1248 C.ar    1  UNL1       -0.0211
      9 C          -2.5061   -1.5454   -0.6994 C.ar    1  UNL1       -0.0088
     10 C          -3.2763   -2.6495   -1.1454 C.ar    1  UNL1       -0.0534
     11 C          -2.6886   -3.7741   -1.7172 C.ar    1  UNL1       -0.0611
     12 C          -1.3160   -3.8221   -1.8566 C.ar    1  UNL1       -0.0611
     13 C          -0.5380   -2.7448   -1.4240 C.ar    1  UNL1       -0.0534
     14 C          -1.0903   -1.5731   -0.8341 C.ar    1  UNL1       -0.0095
     15 C          -0.3068   -0.4650   -0.3884 C.ar    1  UNL1       -0.0079
     16 C           1.1500   -0.4552   -0.5089 C.ar    1  UNL1       -0.0450
     17 C           2.0439    0.5686   -0.1035 C.ar    1  UNL1       -0.0075
     18 C           3.4776    0.5035   -0.2575 C.ar    1  UNL1       -0.0065
     19 C           4.1616    0.5163   -1.5033 C.ar    1  UNL1       -0.0533
     20 C           5.5947    0.4373   -1.6507 C.ar    1  UNL1       -0.0605
     21 C           6.5021    0.3291   -0.5715 C.ar    1  UNL1       -0.0510
     22 C           5.8122    0.3081    0.6323 C.ar    1  UNL1        0.0204
     23 C           6.3480    0.2007    1.8874 C.ar    1  UNL1        0.0994
     24 O           5.3409    0.2034    2.8146 O.2     1  UNL1       -0.4698
     25 C           4.1558    0.3125    2.1371 C.ar    1  UNL1        0.1000
     26 C           4.3971    0.3885    0.7888 C.ar    1  UNL1        0.0276
     27 C           1.3330    1.6316    0.4404 C.ar    1  UNL1        0.0078
     28 C           1.8779    2.8049    0.9049 C.ar    1  UNL1        0.0100
     29 N           0.8404    3.5807    1.3502 N.ar    1  UNL1       -0.3659
     30 C          -0.3546    2.9198    1.1623 C.ar    1  UNL1        0.0100
     31 C          -0.0943    1.6944    0.5886 C.ar    1  UNL1        0.0088
     32 C          -0.9898    0.6657    0.1943 C.ar    1  UNL1        0.0062
     33 H          -6.1004   -1.0119   -1.1346 H       1  UNL1        0.0356
     34 H          -5.9576   -1.7693    0.4936 H       1  UNL1        0.0356
     35 H          -7.9129    0.0833    0.5305 H       1  UNL1        0.0576
     36 H          -6.5957    2.1877    1.3942 H       1  UNL1        0.0626
     37 H          -4.3559   -2.6578   -1.0564 H       1  UNL1        0.0624
     38 H          -3.3044   -4.6052   -2.0492 H       1  UNL1        0.0618
     39 H          -0.8401   -4.6929   -2.2999 H       1  UNL1        0.0618
     40 H           0.5326   -2.8558   -1.5657 H       1  UNL1        0.0624
     41 H           1.6426   -1.3222   -0.9471 H       1  UNL1        0.0630
     42 H           3.5687    0.6007   -2.4161 H       1  UNL1        0.0624
     43 H           5.9999    0.4633   -2.6633 H       1  UNL1        0.0618
     44 H           7.5738    0.2683   -0.6928 H       1  UNL1        0.0625
     45 H           7.3480    0.1141    2.2873 H       1  UNL1        0.1035
     46 H           3.2669    0.3224    2.7524 H       1  UNL1        0.1036
     47 H           2.8977    3.1619    0.9616 H       1  UNL1        0.0813
     48 H           0.9336    4.5049    1.7514 H       1  UNL1        0.1648
     49 H          -1.2597    3.4216    1.4641 H       1  UNL1        0.0813
@<TRIPOS>BOND
     1     1     2    1
     2     2     3    2
     3     3     4    1
     4     4     5   ar
     5     5     6   ar
     6     6     7   ar
     7     7     8   ar
     8     7     9   ar
     9     9    10   ar
    10    10    11   ar
    11    11    12   ar
    12    12    13   ar
    13    13    14   ar
    14    14    15   ar
    15    15    16   ar
    16    16    17   ar
    17    17    18    1
    18    18    19   ar
    19    19    20   ar
    20    20    21   ar
    21    21    22   ar
    22    22    23   ar
    23    23    24   ar
    24    24    25   ar
    25    25    26   ar
    26    17    27   ar
    27    27    28   ar
    28    28    29   ar
    29    29    30   ar
    30    30    31   ar
    31    31    32   ar
    32     8     1    1
    33    14     9   ar
    34    32    15   ar
    35     8     4   ar
    36    26    18   ar
    37    31    27   ar
    38    32     6   ar
    39    26    22   ar
    40     1    33    1
    41     1    34    1
    42     2    35    1
    43     3    36    1
    44    10    37    1
    45    11    38    1
    46    12    39    1
    47    13    40    1
    48    16    41    1
    49    19    42    1
    50    20    43    1
    51    21    44    1
    52    23    45    1
    53    25    46    1
    54    28    47    1
    55    29    48    1
    56    30    49    1
