@<TRIPOS>MOLECULE
*****
 41 47 0 0 0
SMALL
GASTEIGER

@<TRIPOS>ATOM
      1 C           5.4580   -0.8487    0.1180 C.3     1  UNL1        0.0000
      2 C           6.4225    0.3429    0.0723 C.2     1  UNL1        0.0000
      3 C           5.7650    1.5239    0.0567 C.2     1  UNL1        0.0000
      4 C           4.3910    1.2118    0.0893 C.ar    1  UNL1        0.0000
      5 S           3.0132    2.1500    0.0919 S.2     1  UNL1        0.0000
      6 C           1.9497    0.7443    0.1459 C.ar    1  UNL1        0.0000
      7 C           2.7790   -0.3886    0.1561 C.ar    1  UNL1        0.0000
      8 C           4.1530   -0.1357    0.1253 C.ar    1  UNL1        0.0000
      9 C           2.1586   -1.6798    0.1966 C.ar    1  UNL1        0.0000
     10 C           2.8223   -2.8738    0.2123 C.ar    1  UNL1        0.0000
     11 S           1.6827   -4.1573    0.2603 S.2     1  UNL1        0.0000
     12 C           0.3522   -3.0601    0.2579 C.ar    1  UNL1        0.0000
     13 C           0.7446   -1.7347    0.2215 C.ar    1  UNL1        0.0000
     14 C          -0.1631   -0.6437    0.2117 C.ar    1  UNL1        0.0000
     15 C          -1.6020   -0.8040    0.2352 C.ar    1  UNL1        0.0000
     16 C          -2.5133    0.2658    0.2157 C.ar    1  UNL1        0.0000
     17 C          -3.9495    0.0797    0.2360 C.2     1  UNL1        0.0000
     18 C          -4.7120   -0.1723    1.3190 C.2     1  UNL1        0.0000
     19 C          -6.1281   -0.3615    1.0443 C.2     1  UNL1        0.0000
     20 C          -6.4777   -0.2777   -0.2525 C.2     1  UNL1        0.0000
     21 SI         -4.9838    0.0757   -1.3461 Si      1  UNL1        0.0000
     22 C          -1.8792    1.5164    0.1986 C.ar    1  UNL1        0.0000
     23 C          -2.5773    2.7036    0.2217 C.ar    1  UNL1        0.0000
     24 S          -1.5366    4.0562    0.1878 S.2     1  UNL1        0.0000
     25 C          -0.1400    3.0578    0.1624 C.ar    1  UNL1        0.0000
     26 C          -0.4285    1.7106    0.1760 C.ar    1  UNL1        0.0000
     27 C           0.5156    0.6442    0.1745 C.ar    1  UNL1        0.0000
     28 H           5.6135   -1.4330    1.0292 H       1  UNL1        0.0000
     29 H           5.5804   -1.4751   -0.7699 H       1  UNL1        0.0000
     30 H           7.4971    0.2328    0.0552 H       1  UNL1        0.0000
     31 H           6.1930    2.5147    0.0256 H       1  UNL1        0.0000
     32 H           3.8780   -3.0952    0.1995 H       1  UNL1        0.0000
     33 H          -0.6407   -3.4842    0.2845 H       1  UNL1        0.0000
     34 H          -2.0256   -1.8066    0.2659 H       1  UNL1        0.0000
     35 H          -4.3304   -0.2389    2.3310 H       1  UNL1        0.0000
     36 H          -6.8288   -0.5572    1.8469 H       1  UNL1        0.0000
     37 H          -7.4669   -0.3870   -0.6682 H       1  UNL1        0.0000
     38 H          -4.6698   -1.0684   -2.2383 H       1  UNL1        0.0000
     39 H          -5.0735    1.4145   -1.9804 H       1  UNL1        0.0000
     40 H          -3.6459    2.8644    0.2600 H       1  UNL1        0.0000
     41 H           0.8035    3.5741    0.1443 H       1  UNL1        0.0000
@<TRIPOS>BOND
     1     1     2    1
     2     2     3    2
     3     3     4    1
     4     4     5   ar
     5     5     6   ar
     6     6     7   ar
     7     7     8   ar
     8     7     9   ar
     9     9    10   ar
    10    10    11   ar
    11    11    12   ar
    12    12    13   ar
    13    13    14   ar
    14    14    15   ar
    15    15    16   ar
    16    16    17    1
    17    17    18    2
    18    18    19    1
    19    19    20    2
    20    20    21    1
    21    16    22   ar
    22    22    23   ar
    23    23    24   ar
    24    24    25   ar
    25    25    26   ar
    26    26    27   ar
    27     8     1    1
    28    13     9   ar
    29    27    14   ar
    30     8     4   ar
    31    21    17    1
    32    26    22   ar
    33    27     6   ar
    34     1    28    1
    35     1    29    1
    36     2    30    1
    37     3    31    1
    38    10    32    1
    39    12    33    1
    40    15    34    1
    41    18    35    1
    42    19    36    1
    43    20    37    1
    44    21    38    1
    45    21    39    1
    46    23    40    1
    47    25    41    1
