@<TRIPOS>MOLECULE
*****
 39 45 0 0 0
SMALL
GASTEIGER

@<TRIPOS>ATOM
      1 C          -6.0105    0.1552   -0.1988 C.3     1  UNL1        0.0000
      2 C          -6.7832    0.1029    1.1286 C.2     1  UNL1        0.0000
      3 C          -5.9612   -0.0573    2.1914 C.2     1  UNL1        0.0000
      4 C          -4.6517   -0.1196    1.6735 C.ar    1  UNL1        0.0000
      5 S          -3.1443   -0.3048    2.3785 S.2     1  UNL1        0.0000
      6 C          -2.3381   -0.2347    0.8115 C.ar    1  UNL1        0.0000
      7 C          -3.3158   -0.0688   -0.1671 C.ar    1  UNL1        0.0000
      8 C          -4.6238   -0.0028    0.3085 C.ar    1  UNL1        0.0000
      9 C          -2.9259    0.0197   -1.5418 C.ar    1  UNL1        0.0000
     10 N          -3.8051    0.1787   -2.5209 N.ar    1  UNL1        0.0000
     11 S          -2.8306    0.2175   -3.8818 S.2     1  UNL1        0.0000
     12 N          -1.3222    0.0335   -3.1836 N.ar    1  UNL1        0.0000
     13 C          -1.5114   -0.0696   -1.8494 C.ar    1  UNL1        0.0000
     14 C          -0.5029   -0.2409   -0.8512 C.ar    1  UNL1        0.0000
     15 C           0.8714   -0.3271   -1.1632 C.ar    1  UNL1        0.0000
     16 C           1.8203   -0.4950   -0.1479 C.ar    1  UNL1        0.0000
     17 C           1.3877   -0.5726    1.1833 C.ar    1  UNL1        0.0000
     18 C           0.0283   -0.4895    1.5084 C.ar    1  UNL1        0.0000
     19 C          -0.9407   -0.3224    0.4995 C.ar    1  UNL1        0.0000
     20 C           3.2479   -0.5754   -0.4592 C.ar    1  UNL1        0.0000
     21 S           3.8308   -1.8615   -1.4689 S.2     1  UNL1        0.0000
     22 C           5.4723   -1.3416   -1.3569 C.ar    1  UNL1        0.0000
     23 C           5.5418   -0.2315   -0.5740 C.ar    1  UNL1        0.0000
     24 SI          6.9031    0.9197    0.0290 Si      1  UNL1        0.0000
     25 C           5.5608    1.9268    0.9483 C.2     1  UNL1        0.0000
     26 C           4.3321    1.3952    0.7638 C.2     1  UNL1        0.0000
     27 C           4.2967    0.2189   -0.0568 C.ar    1  UNL1        0.0000
     28 H          -6.3082   -0.6696   -0.8519 H       1  UNL1        0.0000
     29 H          -6.1615    1.1172   -0.6961 H       1  UNL1        0.0000
     30 H          -7.8589    0.1861    1.1849 H       1  UNL1        0.0000
     31 H          -6.2392   -0.1255    3.2324 H       1  UNL1        0.0000
     32 H           1.1935   -0.2559   -2.2012 H       1  UNL1        0.0000
     33 H           2.1133   -0.7095    1.9835 H       1  UNL1        0.0000
     34 H          -0.2546   -0.5601    2.5561 H       1  UNL1        0.0000
     35 H           6.2575   -1.8817   -1.8680 H       1  UNL1        0.0000
     36 H           7.5335    1.7291   -1.0433 H       1  UNL1        0.0000
     37 H           7.8450    0.2927    0.9893 H       1  UNL1        0.0000
     38 H           5.8202    2.8039    1.5186 H       1  UNL1        0.0000
     39 H           3.4334    1.8235    1.1929 H       1  UNL1        0.0000
@<TRIPOS>BOND
     1     1     2    1
     2     2     3    2
     3     3     4    1
     4     4     5   ar
     5     5     6   ar
     6     6     7   ar
     7     7     8   ar
     8     7     9   ar
     9     9    10   ar
    10    10    11   ar
    11    11    12   ar
    12    12    13   ar
    13    13    14   ar
    14    14    15   ar
    15    15    16   ar
    16    16    17   ar
    17    17    18   ar
    18    18    19   ar
    19    16    20    1
    20    20    21   ar
    21    21    22   ar
    22    22    23   ar
    23    23    24    1
    24    24    25    1
    25    25    26    2
    26    26    27    1
    27     8     1    1
    28    13     9   ar
    29    19    14   ar
    30    27    20   ar
    31     8     4   ar
    32    27    23   ar
    33    19     6   ar
    34     1    28    1
    35     1    29    1
    36     2    30    1
    37     3    31    1
    38    15    32    1
    39    17    33    1
    40    18    34    1
    41    22    35    1
    42    24    36    1
    43    24    37    1
    44    25    38    1
    45    26    39    1
