@<TRIPOS>MOLECULE
*****
 34 38 0 0 0
SMALL
GASTEIGER

@<TRIPOS>ATOM
      1 C          -5.3444    0.7190    0.4057 C.3     1  UNL1        0.0000
      2 C          -6.2641   -0.5058    0.5064 C.2     1  UNL1        0.0000
      3 C          -5.5692   -1.6658    0.4687 C.2     1  UNL1        0.0000
      4 C          -4.2112   -1.3091    0.3463 C.ar    1  UNL1        0.0000
      5 S          -2.8003   -2.1886    0.2438 S.2     1  UNL1        0.0000
      6 C          -1.8433   -0.7222    0.1312 C.ar    1  UNL1        0.0000
      7 C          -2.6625    0.4255    0.1786 C.ar    1  UNL1        0.0000
      8 C          -2.0537    1.6993    0.0994 C.ar    1  UNL1        0.0000
      9 C          -0.6665    1.8159   -0.0275 C.ar    1  UNL1        0.0000
     10 C           0.1400    0.6763   -0.0756 C.ar    1  UNL1        0.0000
     11 C           1.5355    0.7429   -0.2043 C.ar    1  UNL1        0.0000
     12 C           2.3017   -0.4281   -0.2489 C.ar    1  UNL1        0.0000
     13 C           1.6160   -1.6394   -0.1675 C.ar    1  UNL1        0.0000
     14 N           0.2742   -1.7570   -0.0361 N.ar    1  UNL1        0.0000
     15 C          -0.4379   -0.6043    0.0049 C.ar    1  UNL1        0.0000
     16 C           3.7533   -0.3596   -0.3837 C.2     1  UNL1        0.0000
     17 C           4.4499    0.3117   -1.3264 C.2     1  UNL1        0.0000
     18 C           5.8976    0.2100   -1.2238 C.2     1  UNL1        0.0000
     19 C           6.3504   -0.5322   -0.1970 C.2     1  UNL1        0.0000
     20 SI          4.9329   -1.2332    0.8208 Si      1  UNL1        0.0000
     21 C          -4.0211    0.0457    0.3044 C.ar    1  UNL1        0.0000
     22 H          -5.5742    1.3065   -0.4876 H       1  UNL1        0.0000
     23 H          -5.4210    1.3375    1.3041 H       1  UNL1        0.0000
     24 H          -7.3380   -0.4324    0.5960 H       1  UNL1        0.0000
     25 H          -5.9612   -2.6714    0.5196 H       1  UNL1        0.0000
     26 H          -2.6671    2.5974    0.1343 H       1  UNL1        0.0000
     27 H          -0.2251    2.8083   -0.0896 H       1  UNL1        0.0000
     28 H           2.0271    1.7119   -0.2639 H       1  UNL1        0.0000
     29 H           2.1374   -2.5921   -0.2229 H       1  UNL1        0.0000
     30 H           3.9983    0.8874   -2.1256 H       1  UNL1        0.0000
     31 H           6.5423    0.7033   -1.9415 H       1  UNL1        0.0000
     32 H           7.3793   -0.7343    0.0526 H       1  UNL1        0.0000
     33 H           4.8385   -2.7110    0.7184 H       1  UNL1        0.0000
     34 H           4.8866   -0.6551    2.1867 H       1  UNL1        0.0000
@<TRIPOS>BOND
     1     1     2    1
     2     2     3    2
     3     3     4    1
     4     4     5   ar
     5     5     6   ar
     6     6     7   ar
     7     7     8   ar
     8     8     9   ar
     9     9    10   ar
    10    10    11   ar
    11    11    12   ar
    12    12    13   ar
    13    13    14   ar
    14    14    15   ar
    15    12    16    1
    16    16    17    2
    17    17    18    1
    18    18    19    2
    19    19    20    1
    20     7    21   ar
    21    21     1    1
    22    21     4   ar
    23    15     6   ar
    24    20    16    1
    25    15    10   ar
    26     1    22    1
    27     1    23    1
    28     2    24    1
    29     3    25    1
    30     8    26    1
    31     9    27    1
    32    11    28    1
    33    13    29    1
    34    17    30    1
    35    18    31    1
    36    19    32    1
    37    20    33    1
    38    20    34    1
