@<TRIPOS>MOLECULE
*****
 40 46 0 0 0
SMALL
GASTEIGER

@<TRIPOS>ATOM
      1 SI          1.8283   -0.3813   -0.9614 Si      1  UNL1        0.0000
      2 C           3.1760    0.0848    0.2374 C.2     1  UNL1        0.0000
      3 C           2.6843    0.5617    1.3937 C.2     1  UNL1        0.0000
      4 C           1.2172    0.5853    1.4424 C.ar    1  UNL1        0.0000
      5 C           0.4558    0.1818    0.2931 C.ar    1  UNL1        0.0000
      6 C          -0.9997    0.1279    0.2131 C.ar    1  UNL1        0.0000
      7 C          -1.7943   -0.1839   -0.9631 C.ar    1  UNL1        0.0000
      8 C          -1.3058   -0.2589   -2.2964 C.ar    1  UNL1        0.0000
      9 C          -2.0865   -0.6195   -3.4023 C.ar    1  UNL1        0.0000
     10 C          -3.4245   -0.9022   -3.2332 C.ar    1  UNL1        0.0000
     11 C          -3.9784   -0.7804   -1.9667 C.ar    1  UNL1        0.0000
     12 C          -3.1956   -0.4025   -0.8436 C.ar    1  UNL1        0.0000
     13 C          -3.8813   -0.2264    0.3951 C.ar    1  UNL1        0.0000
     14 C          -5.2832   -0.3917    0.7264 C.ar    1  UNL1        0.0000
     15 C          -5.5831   -0.0880    2.0267 C.ar    1  UNL1        0.0000
     16 S          -4.2084    0.4026    2.8736 S.2     1  UNL1        0.0000
     17 C          -3.1435    0.2032    1.5044 C.ar    1  UNL1        0.0000
     18 C          -1.7264    0.3971    1.4359 C.ar    1  UNL1        0.0000
     19 C          -0.9922    0.8457    2.6068 C.ar    1  UNL1        0.0000
     20 N          -1.4873    1.2125    3.8048 N.ar    1  UNL1        0.0000
     21 S          -0.2294    1.6317    4.7837 S.2     1  UNL1        0.0000
     22 N           1.0368    1.3721    3.7570 N.ar    1  UNL1        0.0000
     23 C           0.5085    0.9477    2.5961 C.ar    1  UNL1        0.0000
     24 C           4.5553   -0.0506   -0.0615 C.ar    1  UNL1        0.0000
     25 C           5.2539    0.3418   -1.1938 C.ar    1  UNL1        0.0000
     26 C           6.6419    0.0218   -1.1394 C.ar    1  UNL1        0.0000
     27 C           6.9761   -0.6108    0.0339 C.ar    1  UNL1        0.0000
     28 S           5.6270   -0.8138    1.0588 S.2     1  UNL1        0.0000
     29 H           1.7401   -1.8387   -1.2304 H       1  UNL1        0.0000
     30 H           1.8562    0.4832   -2.1711 H       1  UNL1        0.0000
     31 H           3.2771    0.8987    2.2361 H       1  UNL1        0.0000
     32 H          -0.2935    0.0237   -2.5421 H       1  UNL1        0.0000
     33 H          -1.6399   -0.6605   -4.3927 H       1  UNL1        0.0000
     34 H          -4.0426   -1.1839   -4.0808 H       1  UNL1        0.0000
     35 H          -5.0438   -0.9730   -1.8767 H       1  UNL1        0.0000
     36 H          -6.0478   -0.7160    0.0328 H       1  UNL1        0.0000
     37 H          -6.5486   -0.1279    2.5120 H       1  UNL1        0.0000
     38 H           4.7936    0.8528   -2.0312 H       1  UNL1        0.0000
     39 H           7.3573    0.2484   -1.9204 H       1  UNL1        0.0000
     40 H           7.9504   -0.9634    0.3428 H       1  UNL1        0.0000
@<TRIPOS>BOND
     1     1     2    1
     2     2     3    2
     3     3     4    1
     4     4     5   ar
     5     5     6   ar
     6     6     7   ar
     7     7     8   ar
     8     8     9   ar
     9     9    10   ar
    10    10    11   ar
    11    11    12   ar
    12    12    13   ar
    13    13    14   ar
    14    14    15   ar
    15    15    16   ar
    16    16    17   ar
    17    17    18   ar
    18    18    19   ar
    19    19    20   ar
    20    20    21   ar
    21    21    22   ar
    22    22    23   ar
    23     2    24    1
    24    24    25   ar
    25    25    26   ar
    26    26    27   ar
    27    27    28   ar
    28     5     1    1
    29    18     6   ar
    30    23    19   ar
    31    28    24   ar
    32    23     4   ar
    33    12     7   ar
    34    17    13   ar
    35     1    29    1
    36     1    30    1
    37     3    31    1
    38     8    32    1
    39     9    33    1
    40    10    34    1
    41    11    35    1
    42    14    36    1
    43    15    37    1
    44    25    38    1
    45    26    39    1
    46    27    40    1
