@<TRIPOS>MOLECULE
*****
 42 48 0 0 0
SMALL
GASTEIGER

@<TRIPOS>ATOM
      1 SI         -3.0263    3.7065   -0.6948 Si      1  UNL1        0.0000
      2 C          -1.5401    2.6267   -0.3981 C.2     1  UNL1        0.0000
      3 C          -1.8723    1.3279   -0.2484 C.ar    1  UNL1        0.0000
      4 C          -0.9859    0.2285    0.0366 C.ar    1  UNL1        0.0000
      5 C          -1.5451   -0.9116    0.6111 C.ar    1  UNL1        0.0000
      6 S          -0.3450   -1.9542    1.2437 S.2     1  UNL1        0.0000
      7 C           0.9421   -1.0418    0.5543 C.ar    1  UNL1        0.0000
      8 C           2.3317   -1.3299    0.6484 C.ar    1  UNL1        0.0000
      9 C           3.2914   -0.5618   -0.0340 C.ar    1  UNL1        0.0000
     10 C           4.7141   -0.8515    0.0258 C.ar    1  UNL1        0.0000
     11 C           5.5272   -1.4213   -0.9348 C.ar    1  UNL1        0.0000
     12 C           6.8788   -1.5428   -0.4986 C.ar    1  UNL1        0.0000
     13 C           7.0508   -1.0661    0.7816 C.ar    1  UNL1        0.0000
     14 S           5.5899   -0.4792    1.4502 S.2     1  UNL1        0.0000
     15 C           2.7355    0.4379   -0.8418 C.ar    1  UNL1        0.0000
     16 C           3.4883    1.2597   -1.6576 C.ar    1  UNL1        0.0000
     17 S           2.5125    2.3007   -2.6211 S.2     1  UNL1        0.0000
     18 C           1.0611    1.6756   -1.9442 C.ar    1  UNL1        0.0000
     19 C           1.3550    0.7676   -0.9672 C.ar    1  UNL1        0.0000
     20 C           0.4090    0.0290   -0.1538 C.ar    1  UNL1        0.0000
     21 C          -2.9964   -1.1995    0.7099 C.ar    1  UNL1        0.0000
     22 C          -3.5026   -2.4243    1.1777 C.ar    1  UNL1        0.0000
     23 C          -4.8762   -2.6741    1.1888 C.ar    1  UNL1        0.0000
     24 C          -5.7632   -1.7091    0.7254 C.ar    1  UNL1        0.0000
     25 C          -5.2820   -0.4853    0.2583 C.ar    1  UNL1        0.0000
     26 C          -3.9046   -0.2105    0.2506 C.ar    1  UNL1        0.0000
     27 C          -3.3470    1.0979   -0.1871 C.ar    1  UNL1        0.0000
     28 C          -4.0913    2.2005   -0.4256 C.2     1  UNL1        0.0000
     29 H          -3.2123    4.7280    0.3629 H       1  UNL1        0.0000
     30 H          -3.0935    4.2040   -2.0896 H       1  UNL1        0.0000
     31 H          -0.5592    3.0677   -0.3361 H       1  UNL1        0.0000
     32 H           2.6558   -2.1783    1.2495 H       1  UNL1        0.0000
     33 H           5.1679   -1.7377   -1.9070 H       1  UNL1        0.0000
     34 H           7.6822   -1.9606   -1.0928 H       1  UNL1        0.0000
     35 H           7.9634   -1.0350    1.3608 H       1  UNL1        0.0000
     36 H           4.5625    1.3011   -1.7767 H       1  UNL1        0.0000
     37 H           0.1110    2.0100   -2.3301 H       1  UNL1        0.0000
     38 H          -2.8404   -3.2109    1.5292 H       1  UNL1        0.0000
     39 H          -5.2503   -3.6281    1.5519 H       1  UNL1        0.0000
     40 H          -6.8322   -1.9068    0.7278 H       1  UNL1        0.0000
     41 H          -6.0018    0.2461   -0.0963 H       1  UNL1        0.0000
     42 H          -5.1628    2.3047   -0.3895 H       1  UNL1        0.0000
@<TRIPOS>BOND
     1     1     2    1
     2     2     3    2
     3     3     4   ar
     4     4     5   ar
     5     5     6   ar
     6     6     7   ar
     7     7     8   ar
     8     8     9   ar
     9     9    10    1
    10    10    11   ar
    11    11    12   ar
    12    12    13   ar
    13    13    14   ar
    14     9    15   ar
    15    15    16   ar
    16    16    17   ar
    17    17    18   ar
    18    18    19   ar
    19    19    20   ar
    20     5    21   ar
    21    21    22   ar
    22    22    23   ar
    23    23    24   ar
    24    24    25   ar
    25    25    26   ar
    26    26    27   ar
    27    27    28    2
    28    28     1    1
    29    27     3   ar
    30    20     4   ar
    31    26    21   ar
    32    20     7   ar
    33    14    10   ar
    34    19    15   ar
    35     1    29    1
    36     1    30    1
    37     2    31    1
    38     8    32    1
    39    11    33    1
    40    12    34    1
    41    13    35    1
    42    16    36    1
    43    18    37    1
    44    22    38    1
    45    23    39    1
    46    24    40    1
    47    25    41    1
    48    28    42    1
