@<TRIPOS>MOLECULE
*****
 32 36 0 0 0
SMALL
GASTEIGER

@<TRIPOS>ATOM
      1 C           3.8744    1.8549    0.6545 C.3     1  UNL1       -0.0078
      2 C           5.3128    1.3161    0.5969 C.2     1  UNL1       -0.0786
      3 C           5.3525   -0.0160    0.3593 C.2     1  UNL1       -0.0513
      4 C           4.0126   -0.4386    0.2472 C.ar    1  UNL1        0.0162
      5 S           3.2884   -1.9358   -0.0406 S.2     1  UNL1       -0.0889
      6 C           1.7692   -1.2056    0.0480 C.ar    1  UNL1        0.0168
      7 C           0.4521   -1.6941   -0.0738 C.2     1  UNL1       -0.0436
      8 C          -0.3639   -0.6238    0.0874 C.2     1  UNL1       -0.0342
      9 C           0.4176    0.6780    0.3486 C.3     1  UNL1       -0.0005
     10 C           1.8070    0.1527    0.2932 C.ar    1  UNL1       -0.0248
     11 C           3.1198    0.6013    0.4094 C.ar    1  UNL1       -0.0254
     12 C          -1.8119   -0.6667    0.0797 C.ar    1  UNL1       -0.0133
     13 C          -2.5783   -1.3676    1.0416 C.ar    1  UNL1       -0.0537
     14 C          -4.0102   -1.3989    1.0546 C.ar    1  UNL1       -0.0606
     15 C          -4.8216   -0.7406    0.1061 C.ar    1  UNL1       -0.0535
     16 C          -4.0623   -0.0658   -0.8502 C.ar    1  UNL1       -0.0103
     17 C          -4.6364    0.6306   -1.8846 C.ar    1  UNL1       -0.0166
     18 S          -3.4416    1.3207   -2.9082 S.2     1  UNL1       -0.1039
     19 C          -2.1543    0.6788   -1.9643 C.ar    1  UNL1       -0.0160
     20 C          -2.6176   -0.0234   -0.8754 C.ar    1  UNL1       -0.0035
     21 H           3.7056    2.5965   -0.1309 H       1  UNL1        0.0356
     22 H           3.6576    2.2793    1.6385 H       1  UNL1        0.0356
     23 H           6.1809    1.9443    0.7330 H       1  UNL1        0.0576
     24 H           6.2264   -0.6432    0.2704 H       1  UNL1        0.0626
     25 H           0.1714   -2.7208   -0.2544 H       1  UNL1        0.0632
     26 H           0.2467    1.4281   -0.4274 H       1  UNL1        0.0362
     27 H           0.1821    1.0880    1.3354 H       1  UNL1        0.0362
     28 H          -2.0560   -1.9102    1.8311 H       1  UNL1        0.0624
     29 H          -4.4998   -1.9661    1.8473 H       1  UNL1        0.0618
     30 H          -5.9025   -0.7792    0.1332 H       1  UNL1        0.0624
     31 H          -5.6847    0.7712   -2.1095 H       1  UNL1        0.0699
     32 H          -1.1359    0.8559   -2.2797 H       1  UNL1        0.0700
@<TRIPOS>BOND
     1     1     2    1
     2     2     3    2
     3     3     4    1
     4     4     5   ar
     5     5     6   ar
     6     6     7    1
     7     7     8    2
     8     8     9    1
     9     9    10    1
    10    10    11   ar
    11     8    12    1
    12    12    13   ar
    13    13    14   ar
    14    14    15   ar
    15    15    16   ar
    16    16    17   ar
    17    17    18   ar
    18    18    19   ar
    19    19    20   ar
    20    11     1    1
    21    20    12   ar
    22    11     4   ar
    23    20    16   ar
    24    10     6   ar
    25     1    21    1
    26     1    22    1
    27     2    23    1
    28     3    24    1
    29     7    25    1
    30     9    26    1
    31     9    27    1
    32    13    28    1
    33    14    29    1
    34    15    30    1
    35    17    31    1
    36    19    32    1
