@<TRIPOS>MOLECULE
*****
 43 49 0 0 0
SMALL
GASTEIGER

@<TRIPOS>ATOM
      1 C           5.5717   -0.2175    1.1708 C.3     1  UNL1        0.0000
      2 C           5.9892    0.9613    2.0650 C.2     1  UNL1        0.0000
      3 C           4.9652    1.8156    2.2966 C.2     1  UNL1        0.0000
      4 C           3.8509    1.2934    1.6088 C.ar    1  UNL1        0.0000
      5 S           2.2530    1.8065    1.4395 S.2     1  UNL1        0.0000
      6 C           1.9137    0.4542    0.4567 C.ar    1  UNL1        0.0000
      7 C           0.5721    0.0686   -0.2140 C.ar    1  UNL1        0.0000
      8 N          -0.6500    0.6712   -0.2098 N.ar    1  UNL1        0.0000
      9 C          -1.5339   -0.0899   -0.9645 C.ar    1  UNL1        0.0000
     10 C          -0.8414   -1.1873   -1.4717 C.ar    1  UNL1        0.0000
     11 C           0.4534   -1.0583   -0.9815 C.ar    1  UNL1        0.0000
     12 C           1.6237   -1.8444   -1.1239 C.ar    1  UNL1        0.0000
     13 C           1.7728   -3.0047   -1.8293 C.ar    1  UNL1        0.0000
     14 N           3.0966   -3.3801   -1.6566 N.ar    1  UNL1        0.0000
     15 C           3.7654   -2.4657   -0.8540 C.ar    1  UNL1        0.0000
     16 C           2.8422   -1.5116   -0.5254 C.ar    1  UNL1        0.0000
     17 C           3.0231   -0.3502    0.2842 C.ar    1  UNL1        0.0000
     18 C           4.1478    0.1223    0.9438 C.ar    1  UNL1        0.0000
     19 C          -2.8757    0.3727   -1.0937 C.ar    1  UNL1        0.0000
     20 C          -3.3561    0.5180   -2.3531 C.ar    1  UNL1        0.0000
     21 C          -4.6962    1.0216   -2.6482 C.ar    1  UNL1        0.0000
     22 C          -5.5545    1.3820   -1.6771 C.ar    1  UNL1        0.0000
     23 C          -5.1380    1.2478   -0.2971 C.ar    1  UNL1        0.0000
     24 C          -5.9016    1.5417    0.7714 C.2     1  UNL1        0.0000
     25 SI         -4.9860    1.1721    2.3594 Si      1  UNL1        0.0000
     26 C          -3.5278    0.6072    1.3322 C.2     1  UNL1        0.0000
     27 C          -3.7819    0.7276    0.0120 C.ar    1  UNL1        0.0000
     28 H           5.6901   -1.1660    1.7016 H       1  UNL1        0.0000
     29 H           6.1484   -0.2211    0.2419 H       1  UNL1        0.0000
     30 H           6.9902    1.0774    2.4540 H       1  UNL1        0.0000
     31 H           4.9827    2.7193    2.8867 H       1  UNL1        0.0000
     32 H          -0.8795    1.5347    0.2630 H       1  UNL1        0.0000
     33 H          -1.2513   -1.9646   -2.1011 H       1  UNL1        0.0000
     34 H           1.0970   -3.6000   -2.4269 H       1  UNL1        0.0000
     35 H           3.5167   -4.2068   -2.0606 H       1  UNL1        0.0000
     36 H           4.8100   -2.6027   -0.6147 H       1  UNL1        0.0000
     37 H          -2.7406    0.2844   -3.2186 H       1  UNL1        0.0000
     38 H          -4.9780    1.1044   -3.6933 H       1  UNL1        0.0000
     39 H          -6.5452    1.7568   -1.9068 H       1  UNL1        0.0000
     40 H          -6.9112    1.9197    0.7734 H       1  UNL1        0.0000
     41 H          -5.6069    0.0663    3.1274 H       1  UNL1        0.0000
     42 H          -4.6841    2.4004    3.1335 H       1  UNL1        0.0000
     43 H          -2.6356    0.2237    1.8005 H       1  UNL1        0.0000
@<TRIPOS>BOND
     1     1     2    1
     2     2     3    2
     3     3     4    1
     4     4     5   ar
     5     5     6   ar
     6     6     7   ar
     7     7     8   ar
     8     8     9   ar
     9     9    10   ar
    10    10    11   ar
    11    11    12   ar
    12    12    13   ar
    13    13    14   ar
    14    14    15   ar
    15    15    16   ar
    16    16    17   ar
    17    17    18   ar
    18     9    19    1
    19    19    20   ar
    20    20    21   ar
    21    21    22   ar
    22    22    23   ar
    23    23    24    2
    24    24    25    1
    25    25    26    1
    26    26    27    2
    27    18     1    1
    28    27    19   ar
    29    18     4   ar
    30    27    23   ar
    31    17     6   ar
    32    11     7   ar
    33    16    12   ar
    34     1    28    1
    35     1    29    1
    36     2    30    1
    37     3    31    1
    38     8    32    1
    39    10    33    1
    40    13    34    1
    41    14    35    1
    42    15    36    1
    43    20    37    1
    44    21    38    1
    45    22    39    1
    46    24    40    1
    47    25    41    1
    48    25    42    1
    49    26    43    1
