@<TRIPOS>MOLECULE
*****
 49 56 0 0 0
SMALL
GASTEIGER

@<TRIPOS>ATOM
      1 C           7.5369    1.1158    0.4132 C.3     1  UNL1        0.0000
      2 C           8.2940    1.0810   -0.9208 C.2     1  UNL1        0.0000
      3 C           7.5156    0.6387   -1.9349 C.2     1  UNL1        0.0000
      4 C           6.2529    0.3635   -1.3737 C.ar    1  UNL1        0.0000
      5 S           4.8166   -0.2032   -2.0006 S.2     1  UNL1        0.0000
      6 C           4.0543   -0.1240   -0.4338 C.ar    1  UNL1        0.0000
      7 C           2.7538   -0.4511   -0.0680 C.ar    1  UNL1        0.0000
      8 SI          1.3504   -1.0796   -1.0671 Si      1  UNL1        0.0000
      9 C           0.3123   -1.0596    0.5130 C.2     1  UNL1        0.0000
     10 C           1.0085   -0.6511    1.5924 C.2     1  UNL1        0.0000
     11 C           2.3970   -0.2911    1.2708 C.ar    1  UNL1        0.0000
     12 N           3.2139    0.1558    2.2311 N.ar    1  UNL1        0.0000
     13 C           4.4835    0.4743    1.8823 C.ar    1  UNL1        0.0000
     14 C           4.9443    0.3490    0.5573 C.ar    1  UNL1        0.0000
     15 C           6.2055    0.6184   -0.0293 C.ar    1  UNL1        0.0000
     16 C          -1.0312   -1.5043    0.5431 C.ar    1  UNL1        0.0000
     17 S          -1.2478   -3.1991    0.8474 S.2     1  UNL1        0.0000
     18 C          -2.9359   -3.1022    0.6862 C.ar    1  UNL1        0.0000
     19 C          -3.3618   -1.8213    0.4284 C.ar    1  UNL1        0.0000
     20 C          -2.2634   -0.8711    0.3735 C.ar    1  UNL1        0.0000
     21 C          -2.4735    0.5348    0.1411 C.ar    1  UNL1        0.0000
     22 C          -1.4738    1.5482    0.1102 C.ar    1  UNL1        0.0000
     23 C          -1.7894    2.8792   -0.1361 C.ar    1  UNL1        0.0000
     24 C          -3.1064    3.2324   -0.3513 C.ar    1  UNL1        0.0000
     25 C          -4.1078    2.2557   -0.3098 C.ar    1  UNL1        0.0000
     26 C          -3.8594    0.8809   -0.0600 C.ar    1  UNL1        0.0000
     27 C          -4.9558   -0.1041   -0.0095 C.ar    1  UNL1        0.0000
     28 C          -6.3199    0.2420   -0.2033 C.ar    1  UNL1        0.0000
     29 C          -7.3722   -0.6839   -0.1514 C.ar    1  UNL1        0.0000
     30 C          -7.1141   -2.0197    0.1001 C.ar    1  UNL1        0.0000
     31 C          -5.8030   -2.4296    0.2984 C.ar    1  UNL1        0.0000
     32 C          -4.7319   -1.4938    0.2458 C.ar    1  UNL1        0.0000
     33 H           8.0022    0.4470    1.1425 H       1  UNL1        0.0000
     34 H           7.4838    2.1356    0.8042 H       1  UNL1        0.0000
     35 H           9.3280    1.3783   -1.0200 H       1  UNL1        0.0000
     36 H           7.7931    0.5160   -2.9711 H       1  UNL1        0.0000
     37 H           0.8661   -0.0945   -2.0681 H       1  UNL1        0.0000
     38 H           1.5691   -2.4534   -1.5894 H       1  UNL1        0.0000
     39 H           0.6401   -0.5806    2.6058 H       1  UNL1        0.0000
     40 H           5.1191    0.8311    2.6860 H       1  UNL1        0.0000
     41 H          -3.5123   -4.0087    0.7949 H       1  UNL1        0.0000
     42 H          -0.4320    1.3269    0.2945 H       1  UNL1        0.0000
     43 H          -1.0070    3.6328   -0.1531 H       1  UNL1        0.0000
     44 H          -3.3687    4.2693   -0.5450 H       1  UNL1        0.0000
     45 H          -5.1165    2.6199   -0.4810 H       1  UNL1        0.0000
     46 H          -6.6128    1.2685   -0.4040 H       1  UNL1        0.0000
     47 H          -8.3942   -0.3477   -0.3088 H       1  UNL1        0.0000
     48 H          -7.9271   -2.7390    0.1416 H       1  UNL1        0.0000
     49 H          -5.6229   -3.4823    0.4930 H       1  UNL1        0.0000
@<TRIPOS>BOND
     1     1     2    1
     2     2     3    2
     3     3     4    1
     4     4     5   ar
     5     5     6   ar
     6     6     7   ar
     7     7     8    1
     8     8     9    1
     9     9    10    2
    10    10    11    1
    11    11    12   ar
    12    12    13   ar
    13    13    14   ar
    14    14    15   ar
    15     9    16    1
    16    16    17   ar
    17    17    18   ar
    18    18    19   ar
    19    19    20   ar
    20    20    21   ar
    21    21    22   ar
    22    22    23   ar
    23    23    24   ar
    24    24    25   ar
    25    25    26   ar
    26    26    27   ar
    27    27    28   ar
    28    28    29   ar
    29    29    30   ar
    30    30    31   ar
    31    31    32   ar
    32    15     1    1
    33    20    16   ar
    34    26    21   ar
    35    32    27   ar
    36    15     4   ar
    37    32    19   ar
    38    14     6   ar
    39    11     7   ar
    40     1    33    1
    41     1    34    1
    42     2    35    1
    43     3    36    1
    44     8    37    1
    45     8    38    1
    46    10    39    1
    47    13    40    1
    48    18    41    1
    49    22    42    1
    50    23    43    1
    51    24    44    1
    52    25    45    1
    53    28    46    1
    54    29    47    1
    55    30    48    1
    56    31    49    1
