@<TRIPOS>MOLECULE
*****
 34 39 0 0 0
SMALL
GASTEIGER

@<TRIPOS>ATOM
      1 C          -4.7671   -0.5558   -0.3994 C.3     1  UNL1       -0.0075
      2 C          -5.3091   -1.8497    0.2268 C.2     1  UNL1       -0.0786
      3 C          -4.3247   -2.6171    0.7501 C.2     1  UNL1       -0.0513
      4 C          -3.1186   -1.9242    0.5214 C.ar    1  UNL1        0.0167
      5 S          -1.5069   -2.2610    0.8883 S.2     1  UNL1       -0.0848
      6 C          -1.0260   -0.7946    0.1632 C.ar    1  UNL1        0.0637
      7 C           0.4091   -0.2173    0.0226 C.ar    1  UNL1        0.1507
      8 O           1.6020   -0.7237    0.4311 O.2     1  UNL1       -0.4522
      9 C           2.5784    0.1864    0.0599 C.ar    1  UNL1        0.1524
     10 C           1.9905    1.2729   -0.5872 C.ar    1  UNL1       -0.0059
     11 C           0.6334    0.9852   -0.5918 C.ar    1  UNL1        0.0327
     12 C          -0.5064    1.6596   -1.0836 C.ar    1  UNL1        0.0312
     13 C          -0.5793    2.8576   -1.7303 C.ar    1  UNL1        0.1001
     14 O          -1.9038    3.1106   -2.0191 O.2     1  UNL1       -0.4698
     15 C          -2.6500    2.0528   -1.5425 C.ar    1  UNL1        0.1000
     16 C          -1.8022    1.1530   -0.9646 C.ar    1  UNL1        0.0291
     17 C          -2.1036   -0.0898   -0.3376 C.ar    1  UNL1        0.0075
     18 C          -3.3177   -0.7292   -0.1383 C.ar    1  UNL1       -0.0209
     19 C           3.9607   -0.0423    0.3425 C.ar    1  UNL1        0.0821
     20 C           5.0826    0.7150    0.0698 C.ar    1  UNL1       -0.0334
     21 C           6.2072    0.0140    0.5738 C.ar    1  UNL1       -0.0437
     22 C           5.7435   -1.1517    1.1405 C.ar    1  UNL1        0.0023
     23 N           4.3810   -1.1762    0.9951 N.ar    1  UNL1       -0.3583
     24 H          -4.9915   -0.5195   -1.4689 H       1  UNL1        0.0356
     25 H          -5.1752    0.3215    0.1099 H       1  UNL1        0.0356
     26 H          -6.3597   -2.1017    0.2388 H       1  UNL1        0.0576
     27 H          -4.4271   -3.5706    1.2461 H       1  UNL1        0.0626
     28 H           2.5083    2.1330   -0.9851 H       1  UNL1        0.0662
     29 H           0.1227    3.6136   -2.0513 H       1  UNL1        0.1036
     30 H          -3.7153    2.1255   -1.7052 H       1  UNL1        0.1036
     31 H           5.0988    1.6707   -0.4372 H       1  UNL1        0.0640
     32 H           7.2423    0.3270    0.5275 H       1  UNL1        0.0633
     33 H           6.2618   -1.9635    1.6330 H       1  UNL1        0.0807
     34 H           3.7620   -1.9107    1.3142 H       1  UNL1        0.1654
@<TRIPOS>BOND
     1     1     2    1
     2     2     3    2
     3     3     4    1
     4     4     5   ar
     5     5     6   ar
     6     6     7   ar
     7     7     8   ar
     8     8     9   ar
     9     9    10   ar
    10    10    11   ar
    11    11    12   ar
    12    12    13   ar
    13    13    14   ar
    14    14    15   ar
    15    15    16   ar
    16    16    17   ar
    17    17    18   ar
    18     9    19    1
    19    19    20   ar
    20    20    21   ar
    21    21    22   ar
    22    22    23   ar
    23    18     1    1
    24    23    19   ar
    25    18     4   ar
    26    17     6   ar
    27    11     7   ar
    28    16    12   ar
    29     1    24    1
    30     1    25    1
    31     2    26    1
    32     3    27    1
    33    10    28    1
    34    13    29    1
    35    15    30    1
    36    20    31    1
    37    21    32    1
    38    22    33    1
    39    23    34    1
