@<TRIPOS>MOLECULE
*****
 42 48 0 0 0
SMALL
GASTEIGER

@<TRIPOS>ATOM
      1 C          -0.4087   -0.9869    0.1105 C.3     1  UNL1        0.0000
      2 C           0.8979   -0.2601   -0.2338 C.2     1  UNL1        0.0000
      3 C           0.6923    0.9769   -0.7602 C.2     1  UNL1        0.0000
      4 SI          2.2196    1.8430   -1.1737 Si      1  UNL1        0.0000
      5 C           3.1539    0.2817   -0.5283 C.2     1  UNL1        0.0000
      6 C           2.2791   -0.6571   -0.0943 C.2     1  UNL1        0.0000
      7 C           4.5629    0.1613   -0.4720 C.ar    1  UNL1        0.0000
      8 S           5.6160    0.8156   -1.7223 S.2     1  UNL1        0.0000
      9 C           7.0732    0.2614   -0.9736 C.ar    1  UNL1        0.0000
     10 C           6.7282   -0.3796    0.1546 C.ar    1  UNL1        0.0000
     11 O           7.5783   -0.9658    1.0405 O.2     1  UNL1        0.0000
     12 C           6.6621   -1.4340    1.9641 C.ar    1  UNL1        0.0000
     13 C           5.3290   -1.1434    1.6472 C.ar    1  UNL1        0.0000
     14 C           5.3846   -0.4392    0.4286 C.ar    1  UNL1        0.0000
     15 C          -0.6836    1.1438   -0.7982 C.ar    1  UNL1        0.0000
     16 N          -1.5277    2.1125   -1.1946 N.ar    1  UNL1        0.0000
     17 C          -2.8240    1.6558   -0.9655 C.ar    1  UNL1        0.0000
     18 C          -4.0414    2.2989   -1.2117 C.ar    1  UNL1        0.0000
     19 C          -5.2206    1.6189   -0.8897 C.ar    1  UNL1        0.0000
     20 C          -5.2041    0.3316   -0.3367 C.ar    1  UNL1        0.0000
     21 C          -6.3959   -0.3390   -0.0187 C.ar    1  UNL1        0.0000
     22 C          -6.3714   -1.6227    0.5323 C.ar    1  UNL1        0.0000
     23 C          -5.1559   -2.2576    0.7746 C.ar    1  UNL1        0.0000
     24 C          -3.9579   -1.6121    0.4673 C.ar    1  UNL1        0.0000
     25 C          -3.9678   -0.3163   -0.0892 C.ar    1  UNL1        0.0000
     26 C          -2.7547    0.3582   -0.4093 C.ar    1  UNL1        0.0000
     27 C          -1.3799    0.0665   -0.3180 C.ar    1  UNL1        0.0000
     28 H          -0.5191   -1.9042   -0.4742 H       1  UNL1        0.0000
     29 H          -0.4784   -1.1929    1.1820 H       1  UNL1        0.0000
     30 H           2.4105    2.0558   -2.6326 H       1  UNL1        0.0000
     31 H           2.4839    3.0370   -0.3282 H       1  UNL1        0.0000
     32 H           2.5484   -1.6208    0.3167 H       1  UNL1        0.0000
     33 H           8.0601    0.4257   -1.3801 H       1  UNL1        0.0000
     34 H           7.1108   -1.9549    2.7999 H       1  UNL1        0.0000
     35 H           4.4637   -1.4103    2.2361 H       1  UNL1        0.0000
     36 H          -1.2913    3.0124   -1.5884 H       1  UNL1        0.0000
     37 H          -4.0791    3.2956   -1.6395 H       1  UNL1        0.0000
     38 H          -6.1702    2.1159   -1.0798 H       1  UNL1        0.0000
     39 H          -7.3579    0.1354   -0.1987 H       1  UNL1        0.0000
     40 H          -7.3042   -2.1265    0.7719 H       1  UNL1        0.0000
     41 H          -5.1398   -3.2562    1.2030 H       1  UNL1        0.0000
     42 H          -3.0210   -2.1243    0.6635 H       1  UNL1        0.0000
@<TRIPOS>BOND
     1     1     2    1
     2     2     3    2
     3     3     4    1
     4     4     5    1
     5     5     6    2
     6     5     7    1
     7     7     8   ar
     8     8     9   ar
     9     9    10   ar
    10    10    11   ar
    11    11    12   ar
    12    12    13   ar
    13    13    14   ar
    14     3    15    1
    15    15    16   ar
    16    16    17   ar
    17    17    18   ar
    18    18    19   ar
    19    19    20   ar
    20    20    21   ar
    21    21    22   ar
    22    22    23   ar
    23    23    24   ar
    24    24    25   ar
    25    25    26   ar
    26    26    27   ar
    27    27     1    1
    28     6     2    1
    29    14     7   ar
    30    27    15   ar
    31    14    10   ar
    32    26    17   ar
    33    25    20   ar
    34     1    28    1
    35     1    29    1
    36     4    30    1
    37     4    31    1
    38     6    32    1
    39     9    33    1
    40    12    34    1
    41    13    35    1
    42    16    36    1
    43    18    37    1
    44    19    38    1
    45    21    39    1
    46    22    40    1
    47    23    41    1
    48    24    42    1
