@<TRIPOS>MOLECULE
*****
 36 41 0 0 0
SMALL
GASTEIGER

@<TRIPOS>ATOM
      1 C           3.5657    1.3636    0.3218 C.3     1  UNL1        0.0000
      2 C           4.3597    0.0605    0.4884 C.2     1  UNL1        0.0000
      3 C           3.5699   -1.0478    0.4730 C.2     1  UNL1        0.0000
      4 SI          4.4904   -2.5858    0.6672 Si      1  UNL1        0.0000
      5 C           6.0717   -1.4965    0.7686 C.2     1  UNL1        0.0000
      6 C           5.7715   -0.1845    0.6547 C.2     1  UNL1        0.0000
      7 C           2.2744   -0.5821    0.3049 C.ar    1  UNL1        0.0000
      8 N           1.0511   -1.1358    0.2083 N.ar    1  UNL1        0.0000
      9 C           0.1363   -0.0967    0.0450 C.ar    1  UNL1        0.0000
     10 C          -1.2610   -0.1461   -0.1020 C.ar    1  UNL1        0.0000
     11 C          -1.9889    1.0499   -0.2553 C.ar    1  UNL1        0.0000
     12 C          -1.2704    2.2602   -0.2539 C.ar    1  UNL1        0.0000
     13 C           0.1265    2.3129   -0.1070 C.ar    1  UNL1        0.0000
     14 C           0.8438    1.1197    0.0448 C.ar    1  UNL1        0.0000
     15 C           2.1934    0.7822    0.2109 C.ar    1  UNL1        0.0000
     16 C          -3.4645    1.0117   -0.4116 C.ar    1  UNL1        0.0000
     17 S          -4.4002    2.4950   -0.6035 S.2     1  UNL1        0.0000
     18 C          -5.9186    1.6920   -0.7175 C.ar    1  UNL1        0.0000
     19 C          -5.6852    0.3752   -0.6113 C.ar    1  UNL1        0.0000
     20 O          -6.6330   -0.6003   -0.6532 O.2     1  UNL1        0.0000
     21 C          -5.8291   -1.7095   -0.4985 C.ar    1  UNL1        0.0000
     22 C          -4.4667   -1.4137   -0.3702 C.ar    1  UNL1        0.0000
     23 C          -4.3721   -0.0049   -0.4467 C.ar    1  UNL1        0.0000
     24 H           3.6656    2.0061    1.2008 H       1  UNL1        0.0000
     25 H           3.8575    1.8944   -0.5883 H       1  UNL1        0.0000
     26 H           4.2494   -3.2978    1.9477 H       1  UNL1        0.0000
     27 H           4.5154   -3.4527   -0.5380 H       1  UNL1        0.0000
     28 H           7.0429   -1.9455    0.9005 H       1  UNL1        0.0000
     29 H           6.4982    0.6162    0.6825 H       1  UNL1        0.0000
     30 H           0.8168   -2.1178    0.2445 H       1  UNL1        0.0000
     31 H          -1.7509   -1.1099   -0.0941 H       1  UNL1        0.0000
     32 H          -1.7780    3.2151   -0.3683 H       1  UNL1        0.0000
     33 H           0.6390    3.2702   -0.1119 H       1  UNL1        0.0000
     34 H          -6.8634    2.1981   -0.8504 H       1  UNL1        0.0000
     35 H          -6.3698   -2.6470   -0.4990 H       1  UNL1        0.0000
     36 H          -3.6875   -2.1487   -0.2412 H       1  UNL1        0.0000
@<TRIPOS>BOND
     1     1     2    1
     2     2     3    2
     3     3     4    1
     4     4     5    1
     5     5     6    2
     6     3     7    1
     7     7     8   ar
     8     8     9   ar
     9     9    10   ar
    10    10    11   ar
    11    11    12   ar
    12    12    13   ar
    13    13    14   ar
    14    14    15   ar
    15    11    16    1
    16    16    17   ar
    17    17    18   ar
    18    18    19   ar
    19    19    20   ar
    20    20    21   ar
    21    21    22   ar
    22    22    23   ar
    23    15     1    1
    24    23    16   ar
    25     6     2    1
    26    15     7   ar
    27    23    19   ar
    28    14     9   ar
    29     1    24    1
    30     1    25    1
    31     4    26    1
    32     4    27    1
    33     5    28    1
    34     6    29    1
    35     8    30    1
    36    10    31    1
    37    12    32    1
    38    13    33    1
    39    18    34    1
    40    21    35    1
    41    22    36    1
