@<TRIPOS>MOLECULE
*****
 30 35 0 0 0
SMALL
GASTEIGER

@<TRIPOS>ATOM
      1 C           0.8054    1.2251   -1.0810 C.3     1  UNL1        0.0025
      2 C          -0.1207    0.3477   -0.3124 C.ar    1  UNL1        0.0111
      3 C           0.5346   -0.5449    0.4936 C.ar    1  UNL1        0.1421
      4 O          -0.2441   -1.3628    1.2116 O.2     1  UNL1       -0.4544
      5 C          -1.5299   -0.9860    0.8562 C.ar    1  UNL1        0.1366
      6 C          -2.7296   -1.5457    1.3376 C.ar    1  UNL1       -0.0181
      7 C          -3.9673   -1.0457    0.8732 C.ar    1  UNL1       -0.0500
      8 C          -3.8526   -0.0038   -0.0545 C.ar    1  UNL1       -0.0101
      9 C          -4.9500    0.6080   -0.6165 C.ar    1  UNL1       -0.0166
     10 S          -4.4947    1.8582   -1.7250 S.2     1  UNL1       -0.1039
     11 C          -2.8094    1.5926   -1.4630 C.ar    1  UNL1       -0.0159
     12 C          -2.6666    0.5826   -0.5600 C.ar    1  UNL1        0.0002
     13 C          -1.4456    0.0533   -0.0696 C.ar    1  UNL1        0.0325
     14 C           1.9321   -0.4129    0.3971 C.ar    1  UNL1        0.0492
     15 C           2.1468    0.6449   -0.5431 C.ar    1  UNL1       -0.0301
     16 C           3.4324    1.0728   -0.9051 C.ar    1  UNL1       -0.0554
     17 C           4.5853    0.4703   -0.3501 C.ar    1  UNL1       -0.0332
     18 C           4.4078   -0.5905    0.5934 C.ar    1  UNL1        0.1006
     19 N           5.3862   -1.2681    1.2127 N.ar    1  UNL1       -0.1908
     20 S           4.6341   -2.3817    2.1945 S.2     1  UNL1        0.1165
     21 N           3.0341   -2.0591    1.8822 N.ar    1  UNL1       -0.1901
     22 C           3.0189   -1.0584    0.9894 C.ar    1  UNL1        0.1108
     23 H           0.7037    2.2773   -0.8043 H       1  UNL1        0.0363
     24 H           0.7243    1.0684   -2.1594 H       1  UNL1        0.0363
     25 H          -2.6957   -2.3553    2.0602 H       1  UNL1        0.0655
     26 H          -4.9100   -1.4514    1.2210 H       1  UNL1        0.0625
     27 H          -5.9993    0.4049   -0.4509 H       1  UNL1        0.0699
     28 H          -2.0664    2.1831   -1.9787 H       1  UNL1        0.0700
     29 H           3.5533    1.8811   -1.6242 H       1  UNL1        0.0621
     30 H           5.5831    0.7957   -0.6251 H       1  UNL1        0.0640
@<TRIPOS>BOND
     1     1     2    1
     2     2     3   ar
     3     3     4   ar
     4     4     5   ar
     5     5     6   ar
     6     6     7   ar
     7     7     8   ar
     8     8     9   ar
     9     9    10   ar
    10    10    11   ar
    11    11    12   ar
    12    12    13   ar
    13     3    14    1
    14    14    15   ar
    15    15    16   ar
    16    16    17   ar
    17    17    18   ar
    18    18    19   ar
    19    19    20   ar
    20    20    21   ar
    21    21    22   ar
    22    15     1    1
    23    22    18   ar
    24     2    13   ar
    25    22    14   ar
    26    13     5   ar
    27    12     8   ar
    28     1    23    1
    29     1    24    1
    30     6    25    1
    31     7    26    1
    32     9    27    1
    33    11    28    1
    34    16    29    1
    35    17    30    1
