@<TRIPOS>MOLECULE
*****
 38 43 0 0 0
SMALL
GASTEIGER

@<TRIPOS>ATOM
      1 C           2.3604   -1.3388   -1.2791 C.3     1  UNL1        0.0000
      2 C           0.9108   -1.0921   -0.8950 C.ar    1  UNL1        0.0000
      3 C          -0.3900   -1.4973   -1.2229 C.ar    1  UNL1        0.0000
      4 C          -1.2621   -0.7828   -0.3939 C.ar    1  UNL1        0.0000
      5 N          -0.4937    0.0209    0.4447 N.ar    1  UNL1        0.0000
      6 C           0.7982   -0.1693    0.1250 C.ar    1  UNL1        0.0000
      7 C           2.0795    0.2607    0.5019 C.ar    1  UNL1        0.0000
      8 N           2.6719    1.1013    1.3880 N.ar    1  UNL1        0.0000
      9 C           4.0209    0.9863    1.1586 C.ar    1  UNL1        0.0000
     10 C           5.0721    1.6569    1.8224 C.2     1  UNL1        0.0000
     11 C           6.2658    1.2758    1.3131 C.2     1  UNL1        0.0000
     12 SI          6.0723   -0.0384   -0.1249 Si      1  UNL1        0.0000
     13 C           4.2394    0.0756    0.1360 C.ar    1  UNL1        0.0000
     14 C           3.0185   -0.3949   -0.2911 C.ar    1  UNL1        0.0000
     15 C          -2.7078   -0.8420   -0.2976 C.ar    1  UNL1        0.0000
     16 C          -3.4525   -2.0472   -0.2849 C.ar    1  UNL1        0.0000
     17 C          -4.8862   -2.1088   -0.1665 C.ar    1  UNL1        0.0000
     18 C          -5.7247   -0.9757   -0.0560 C.ar    1  UNL1        0.0000
     19 C          -4.9746    0.1927   -0.0860 C.ar    1  UNL1        0.0000
     20 C          -5.4759    1.4670   -0.0302 C.ar    1  UNL1        0.0000
     21 N          -4.4000    2.3233   -0.1274 N.ar    1  UNL1        0.0000
     22 C          -3.2249    1.6072   -0.2379 C.ar    1  UNL1        0.0000
     23 C          -3.5514    0.2718   -0.1992 C.ar    1  UNL1        0.0000
     24 H           2.5570   -1.0405   -2.3120 H       1  UNL1        0.0000
     25 H           2.6513   -2.3766   -1.0983 H       1  UNL1        0.0000
     26 H          -0.6869   -2.2150   -1.9760 H       1  UNL1        0.0000
     27 H          -0.8630    0.6208    1.1685 H       1  UNL1        0.0000
     28 H           2.2182    1.6874    2.0746 H       1  UNL1        0.0000
     29 H           4.9385    2.3718    2.6232 H       1  UNL1        0.0000
     30 H           7.2513    1.6022    1.6018 H       1  UNL1        0.0000
     31 H           6.6935   -1.3248    0.2811 H       1  UNL1        0.0000
     32 H           6.5692    0.5353   -1.4015 H       1  UNL1        0.0000
     33 H          -2.9131   -2.9923   -0.3557 H       1  UNL1        0.0000
     34 H          -5.3512   -3.0952   -0.1623 H       1  UNL1        0.0000
     35 H          -6.8001   -1.0345    0.0265 H       1  UNL1        0.0000
     36 H          -6.4833    1.8514    0.0518 H       1  UNL1        0.0000
     37 H          -4.4643    3.3329   -0.1388 H       1  UNL1        0.0000
     38 H          -2.2834    2.1247   -0.3577 H       1  UNL1        0.0000
@<TRIPOS>BOND
     1     1     2    1
     2     2     3   ar
     3     3     4   ar
     4     4     5   ar
     5     5     6   ar
     6     6     7    1
     7     7     8   ar
     8     8     9   ar
     9     9    10    1
    10    10    11    2
    11    11    12    1
    12    12    13    1
    13    13    14   ar
    14     4    15    1
    15    15    16   ar
    16    16    17   ar
    17    17    18   ar
    18    18    19   ar
    19    19    20   ar
    20    20    21   ar
    21    21    22   ar
    22    22    23   ar
    23    14     1    1
    24    23    15   ar
    25     6     2   ar
    26    14     7   ar
    27    23    19   ar
    28    13     9   ar
    29     1    24    1
    30     1    25    1
    31     3    26    1
    32     5    27    1
    33     8    28    1
    34    10    29    1
    35    11    30    1
    36    12    31    1
    37    12    32    1
    38    16    33    1
    39    17    34    1
    40    18    35    1
    41    20    36    1
    42    21    37    1
    43    22    38    1
