@<TRIPOS>MOLECULE
*****
 33 38 0 0 0
SMALL
GASTEIGER

@<TRIPOS>ATOM
      1 C          -0.7624   -1.6355    0.6712 C.3     1  UNL1        0.0009
      2 C           0.6362   -1.1942    0.3618 C.ar    1  UNL1       -0.0171
      3 C           1.9535   -1.6697    0.4521 C.ar    1  UNL1       -0.0303
      4 C           2.7856   -0.6656   -0.0496 C.ar    1  UNL1        0.0725
      5 N           1.9847    0.3998   -0.4369 N.ar    1  UNL1       -0.3523
      6 C           0.7056    0.0591   -0.1809 C.ar    1  UNL1        0.0529
      7 C          -0.5878    0.6141   -0.3072 C.ar    1  UNL1        0.0308
      8 C          -1.5048   -0.3581    0.1880 C.ar    1  UNL1       -0.0226
      9 C          -2.9017   -0.1297    0.2104 C.ar    1  UNL1        0.0065
     10 C          -3.8281   -1.0600    0.6885 C.ar    1  UNL1        0.0356
     11 N          -5.1699   -0.8705    0.7227 N.ar    1  UNL1       -0.2626
     12 C          -5.6397    0.3071    0.2588 C.ar    1  UNL1        0.0282
     13 C          -4.8357    1.3138   -0.2415 C.ar    1  UNL1       -0.0337
     14 C          -3.4477    1.1002   -0.2694 C.ar    1  UNL1        0.0135
     15 C          -2.5319    2.1019   -0.7772 C.ar    1  UNL1        0.1083
     16 N          -2.8462    3.3143   -1.2693 N.ar    1  UNL1       -0.1901
     17 S          -1.4156    4.0398   -1.7031 S.2     1  UNL1        0.1165
     18 N          -0.3193    2.8595   -1.2920 N.ar    1  UNL1       -0.1901
     19 C          -1.0405    1.8424   -0.7944 C.ar    1  UNL1        0.1098
     20 C           4.2159   -0.6689   -0.1713 C.ar    1  UNL1        0.1243
     21 N           4.9413   -1.7003    0.2080 N.ar    1  UNL1       -0.2459
     22 C           6.2786   -1.4417   -0.0179 C.ar    1  UNL1        0.0355
     23 C           6.5617   -0.2117   -0.5691 C.ar    1  UNL1       -0.0042
     24 S           5.1053    0.6565   -0.8156 S.2     1  UNL1       -0.0742
     25 H          -1.0552   -2.5044    0.0765 H       1  UNL1        0.0362
     26 H          -0.9119   -1.7909    1.7425 H       1  UNL1        0.0362
     27 H           2.2934   -2.6253    0.8320 H       1  UNL1        0.0642
     28 H           2.3084    1.2715   -0.8381 H       1  UNL1        0.1660
     29 H          -3.5149   -2.0265    1.0754 H       1  UNL1        0.0836
     30 H          -6.7193    0.4237    0.3018 H       1  UNL1        0.0830
     31 H          -5.2747    2.2392   -0.6000 H       1  UNL1        0.0639
     32 H           7.0134   -2.1942    0.2411 H       1  UNL1        0.0835
     33 H           7.5237    0.2045   -0.8302 H       1  UNL1        0.0709
@<TRIPOS>BOND
     1     1     2    1
     2     2     3   ar
     3     3     4   ar
     4     4     5   ar
     5     5     6   ar
     6     6     7    1
     7     7     8   ar
     8     8     9   ar
     9     9    10   ar
    10    10    11   ar
    11    11    12   ar
    12    12    13   ar
    13    13    14   ar
    14    14    15   ar
    15    15    16   ar
    16    16    17   ar
    17    17    18   ar
    18    18    19   ar
    19     4    20    1
    20    20    21   ar
    21    21    22   ar
    22    22    23   ar
    23    23    24   ar
    24     8     1    1
    25    14     9   ar
    26    19    15   ar
    27    24    20   ar
    28     6     2   ar
    29    19     7   ar
    30     1    25    1
    31     1    26    1
    32     3    27    1
    33     5    28    1
    34    10    29    1
    35    12    30    1
    36    13    31    1
    37    22    32    1
    38    23    33    1
