@<TRIPOS>MOLECULE
*****
 38 44 0 0 0
SMALL
GASTEIGER

@<TRIPOS>ATOM
      1 C           1.7189   -2.2340    1.0646 C.3     1  UNL1        0.0037
      2 C           0.3313   -1.6754    0.9097 C.ar    1  UNL1       -0.0171
      3 C          -0.9966   -2.0382    1.1870 C.ar    1  UNL1       -0.0318
      4 C          -1.8104   -0.9877    0.7540 C.ar    1  UNL1        0.0545
      5 N          -0.9821   -0.0074    0.2237 N.ar    1  UNL1       -0.3535
      6 C           0.2922   -0.4359    0.3254 C.ar    1  UNL1        0.0515
      7 C           1.6006   -0.0038    0.0173 C.ar    1  UNL1        0.0163
      8 C           2.4827   -1.0483    0.4426 C.ar    1  UNL1        0.0096
      9 C           3.8592   -0.8690    0.2492 C.ar    1  UNL1        0.1396
     10 O           4.8738   -1.7271    0.5758 O.2     1  UNL1       -0.4626
     11 C           6.0433   -1.1222    0.1971 C.ar    1  UNL1        0.0932
     12 C           5.8178    0.1179   -0.3727 C.ar    1  UNL1       -0.0154
     13 C           4.4358    0.2515   -0.3272 C.ar    1  UNL1        0.0311
     14 C           3.5646    1.2960   -0.7534 C.ar    1  UNL1        0.0312
     15 C           3.7924    2.4981   -1.3410 C.ar    1  UNL1        0.1001
     16 O           2.5681    3.0993   -1.5293 O.2     1  UNL1       -0.4698
     17 C           1.5992    2.2451   -1.0482 C.ar    1  UNL1        0.1000
     18 C           2.1835    1.1070   -0.5550 C.ar    1  UNL1        0.0300
     19 C          -3.2401   -0.8473    0.8013 C.ar    1  UNL1        0.0447
     20 S          -4.2707   -2.0877    1.4765 S.2     1  UNL1       -0.0925
     21 C          -5.7346   -1.2126    1.1762 C.ar    1  UNL1        0.0002
     22 C          -5.4026   -0.0455    0.5920 C.ar    1  UNL1        0.0542
     23 N          -6.2650    0.9336    0.1936 N.ar    1  UNL1       -0.3602
     24 C          -5.3825    1.8752   -0.3273 C.ar    1  UNL1        0.0028
     25 C          -4.0431    1.4411   -0.2277 C.ar    1  UNL1       -0.0355
     26 C          -4.0537    0.1559    0.3874 C.ar    1  UNL1        0.0158
     27 H           1.9933   -2.3681    2.1135 H       1  UNL1        0.0363
     28 H           1.8639   -3.1433    0.4768 H       1  UNL1        0.0363
     29 H          -1.3364   -2.9560    1.6489 H       1  UNL1        0.0642
     30 H          -1.2905    0.8699   -0.1670 H       1  UNL1        0.1659
     31 H           6.9377   -1.6958    0.3985 H       1  UNL1        0.1030
     32 H           6.5657    0.7973   -0.7535 H       1  UNL1        0.0655
     33 H           4.6534    3.0584   -1.6744 H       1  UNL1        0.1036
     34 H           0.5856    2.6067   -1.1396 H       1  UNL1        0.1036
     35 H          -6.7083   -1.6002    1.4396 H       1  UNL1        0.0714
     36 H          -7.2749    0.9442    0.2697 H       1  UNL1        0.1653
     37 H          -5.7798    2.7960   -0.7354 H       1  UNL1        0.0807
     38 H          -3.1918    2.0121   -0.5692 H       1  UNL1        0.0639
@<TRIPOS>BOND
     1     1     2    1
     2     2     3   ar
     3     3     4   ar
     4     4     5   ar
     5     5     6   ar
     6     6     7    1
     7     7     8   ar
     8     8     9   ar
     9     9    10   ar
    10    10    11   ar
    11    11    12   ar
    12    12    13   ar
    13    13    14   ar
    14    14    15   ar
    15    15    16   ar
    16    16    17   ar
    17    17    18   ar
    18     4    19    1
    19    19    20   ar
    20    20    21   ar
    21    21    22   ar
    22    22    23   ar
    23    23    24   ar
    24    24    25   ar
    25    25    26   ar
    26     8     1    1
    27    13     9   ar
    28    18    14   ar
    29    26    19   ar
    30     6     2   ar
    31    18     7   ar
    32    26    22   ar
    33     1    27    1
    34     1    28    1
    35     3    29    1
    36     5    30    1
    37    11    31    1
    38    12    32    1
    39    15    33    1
    40    17    34    1
    41    21    35    1
    42    23    36    1
    43    24    37    1
    44    25    38    1
