@<TRIPOS>MOLECULE
*****
 48 55 0 0 0
SMALL
GASTEIGER

@<TRIPOS>ATOM
      1 SI         -0.3043   -4.4221   -1.1107 Si      1  UNL1        0.0000
      2 C           1.2190   -3.3863   -0.8180 C.2     1  UNL1        0.0000
      3 C           0.8892   -2.1117   -0.5299 C.ar    1  UNL1        0.0000
      4 C           1.8164   -1.0163   -0.3299 C.ar    1  UNL1        0.0000
      5 C           3.2538   -1.1047   -0.0525 C.2     1  UNL1        0.0000
      6 C           3.8671    0.0551    0.2563 C.2     1  UNL1        0.0000
      7 SI          2.6269    1.4661    0.2089 Si      1  UNL1        0.0000
      8 C           1.2918    0.2405   -0.3265 C.ar    1  UNL1        0.0000
      9 C          -0.1533    0.5627   -0.4414 C.ar    1  UNL1        0.0000
     10 C          -1.0506   -0.4538   -0.2101 C.ar    1  UNL1        0.0000
     11 C          -2.4478   -0.1037    0.1899 C.ar    1  UNL1        0.0000
     12 C          -3.2736   -0.8811    1.0374 C.ar    1  UNL1        0.0000
     13 C          -2.8772   -1.9789    1.7701 C.ar    1  UNL1        0.0000
     14 S          -4.1649   -2.6723    2.6732 S.2     1  UNL1        0.0000
     15 C          -5.2534   -1.4381    2.1946 C.ar    1  UNL1        0.0000
     16 C          -4.6407   -0.5329    1.3631 C.ar    1  UNL1        0.0000
     17 C          -5.3010    0.6099    0.9268 C.ar    1  UNL1        0.0000
     18 C          -4.4417    1.4548    0.1969 C.ar    1  UNL1        0.0000
     19 C          -3.0735    1.1417   -0.1324 C.ar    1  UNL1        0.0000
     20 C          -2.1820    2.1497   -0.7450 C.ar    1  UNL1        0.0000
     21 C          -2.5757    3.3330   -1.2624 C.2     1  UNL1        0.0000
     22 SI         -1.1447    4.2806   -1.9767 Si      1  UNL1        0.0000
     23 C          -0.0538    2.8445   -1.5005 C.2     1  UNL1        0.0000
     24 C          -0.7232    1.8741   -0.8383 C.ar    1  UNL1        0.0000
     25 C          -0.5646   -1.8299   -0.4712 C.ar    1  UNL1        0.0000
     26 C          -1.3295   -2.8933   -0.8028 C.2     1  UNL1        0.0000
     27 C           5.2377    0.2236    0.5800 C.ar    1  UNL1        0.0000
     28 C           5.8690    1.1664    1.3843 C.ar    1  UNL1        0.0000
     29 N           7.2443    1.0825    1.4901 N.ar    1  UNL1        0.0000
     30 C           7.6665    0.0701    0.7708 C.ar    1  UNL1        0.0000
     31 S           6.4669   -0.8195   -0.0602 S.2     1  UNL1        0.0000
     32 H          -0.4016   -4.9042   -2.5093 H       1  UNL1        0.0000
     33 H          -0.4943   -5.4514   -0.0606 H       1  UNL1        0.0000
     34 H           2.2068   -3.8019   -0.9321 H       1  UNL1        0.0000
     35 H           3.7459   -2.0693   -0.0713 H       1  UNL1        0.0000
     36 H           2.3960    2.0400    1.5603 H       1  UNL1        0.0000
     37 H           2.9969    2.4595   -0.8336 H       1  UNL1        0.0000
     38 H          -1.9019   -2.4367    1.8444 H       1  UNL1        0.0000
     39 H          -6.2649   -1.4329    2.5768 H       1  UNL1        0.0000
     40 H          -6.3192    0.8812    1.1720 H       1  UNL1        0.0000
     41 H          -4.8526    2.4182   -0.1010 H       1  UNL1        0.0000
     42 H          -3.5708    3.7400   -1.3229 H       1  UNL1        0.0000
     43 H          -1.2492    4.4531   -3.4452 H       1  UNL1        0.0000
     44 H          -0.8311    5.5067   -1.2048 H       1  UNL1        0.0000
     45 H           0.9688    2.8500   -1.8324 H       1  UNL1        0.0000
     46 H          -2.4019   -2.9234   -0.9127 H       1  UNL1        0.0000
     47 H           5.3657    1.9524    1.9355 H       1  UNL1        0.0000
     48 H           8.7142   -0.1920    0.7030 H       1  UNL1        0.0000
@<TRIPOS>BOND
     1     1     2    1
     2     2     3    2
     3     3     4   ar
     4     4     5    1
     5     5     6    2
     6     6     7    1
     7     7     8    1
     8     8     9   ar
     9     9    10   ar
    10    10    11   ar
    11    11    12   ar
    12    12    13   ar
    13    13    14   ar
    14    14    15   ar
    15    15    16   ar
    16    16    17   ar
    17    17    18   ar
    18    18    19   ar
    19    19    20   ar
    20    20    21    2
    21    21    22    1
    22    22    23    1
    23    23    24    2
    24    10    25   ar
    25    25    26    2
    26     6    27    1
    27    27    28   ar
    28    28    29   ar
    29    29    30   ar
    30    30    31   ar
    31    26     1    1
    32    31    27   ar
    33    25     3   ar
    34     8     4   ar
    35    24     9   ar
    36    19    11   ar
    37    24    20   ar
    38    16    12   ar
    39     1    32    1
    40     1    33    1
    41     2    34    1
    42     5    35    1
    43     7    36    1
    44     7    37    1
    45    13    38    1
    46    15    39    1
    47    17    40    1
    48    18    41    1
    49    21    42    1
    50    22    43    1
    51    22    44    1
    52    23    45    1
    53    26    46    1
    54    28    47    1
    55    30    48    1
