@<TRIPOS>MOLECULE
*****
 43 49 0 0 0
SMALL
GASTEIGER

@<TRIPOS>ATOM
      1 C           0.5197   -2.6155    1.1837 C.3     1  UNL1        0.0002
      2 C           1.5438   -1.6256    0.7263 C.ar    1  UNL1       -0.0172
      3 C           2.9363   -1.4630    0.6987 C.ar    1  UNL1       -0.0322
      4 C           3.2133   -0.2305    0.0905 C.ar    1  UNL1        0.0508
      5 N           1.9772    0.3321   -0.2400 N.ar    1  UNL1       -0.3538
      6 C           1.0020   -0.5145    0.1472 C.ar    1  UNL1        0.0507
      7 C          -0.4185   -0.5925    0.1311 C.ar    1  UNL1        0.0027
      8 C          -1.3903    0.2659   -0.3381 C.ar    1  UNL1       -0.0440
      9 C          -2.7576   -0.0918   -0.2119 C.ar    1  UNL1       -0.0095
     10 C          -3.0607   -1.3492    0.4080 C.ar    1  UNL1       -0.0170
     11 C          -4.3905   -1.7455    0.5552 C.ar    1  UNL1       -0.0534
     12 C          -5.4320   -0.9372    0.1084 C.ar    1  UNL1       -0.0534
     13 C          -5.1770    0.2940   -0.5002 C.ar    1  UNL1       -0.0173
     14 C          -6.2562    1.0809   -0.9378 C.ar    1  UNL1       -0.0540
     15 C          -6.0467    2.3138   -1.5490 C.ar    1  UNL1       -0.0612
     16 C          -4.7524    2.7746   -1.7300 C.ar    1  UNL1       -0.0611
     17 C          -3.6703    2.0009   -1.2989 C.ar    1  UNL1       -0.0534
     18 C          -3.8406    0.7394   -0.6718 C.ar    1  UNL1       -0.0102
     19 C          -2.0466   -2.2064    0.8783 C.ar    1  UNL1       -0.0499
     20 C          -0.7251   -1.8272    0.7393 C.ar    1  UNL1       -0.0333
     21 C           4.4912    0.4353   -0.1943 C.ar    1  UNL1        0.0445
     22 C           4.6134    1.6872   -0.8208 C.ar    1  UNL1        0.0389
     23 N           5.7566    2.3873   -1.1283 N.ar    1  UNL1       -0.2603
     24 C           6.9808    1.8767   -0.8221 C.ar    1  UNL1        0.0557
     25 C           7.0363    0.6218   -0.1872 C.ar    1  UNL1        0.1185
     26 N           8.1525   -0.0260    0.1838 N.ar    1  UNL1       -0.1892
     27 S           7.6578   -1.4459    0.8800 S.2     1  UNL1        0.1165
     28 N           6.0156   -1.3006    0.7415 N.ar    1  UNL1       -0.1900
     29 C           5.7586   -0.1240    0.1380 C.ar    1  UNL1        0.1119
     30 H           0.5337   -2.7490    2.2681 H       1  UNL1        0.0362
     31 H           0.5968   -3.5637    0.6463 H       1  UNL1        0.0362
     32 H           3.6666   -2.1650    1.0795 H       1  UNL1        0.0642
     33 H           1.8263    1.2218   -0.6925 H       1  UNL1        0.1659
     34 H          -1.0837    1.1981   -0.7945 H       1  UNL1        0.0630
     35 H          -4.6372   -2.6964    1.0233 H       1  UNL1        0.0624
     36 H          -6.4541   -1.2856    0.2435 H       1  UNL1        0.0624
     37 H          -7.2794    0.7350   -0.8040 H       1  UNL1        0.0624
     38 H          -6.8925    2.9093   -1.8814 H       1  UNL1        0.0618
     39 H          -4.5770    3.7358   -2.2061 H       1  UNL1        0.0618
     40 H          -2.6787    2.4107   -1.4661 H       1  UNL1        0.0624
     41 H          -2.2875   -3.1568    1.3462 H       1  UNL1        0.0627
     42 H           3.7222    2.2307   -1.1304 H       1  UNL1        0.0837
     43 H           7.8539    2.4604   -1.0816 H       1  UNL1        0.0852
@<TRIPOS>BOND
     1     1     2    1
     2     2     3   ar
     3     3     4   ar
     4     4     5   ar
     5     5     6   ar
     6     6     7    1
     7     7     8   ar
     8     8     9   ar
     9     9    10   ar
    10    10    11   ar
    11    11    12   ar
    12    12    13   ar
    13    13    14   ar
    14    14    15   ar
    15    15    16   ar
    16    16    17   ar
    17    17    18   ar
    18    10    19   ar
    19    19    20   ar
    20     4    21    1
    21    21    22   ar
    22    22    23   ar
    23    23    24   ar
    24    24    25   ar
    25    25    26   ar
    26    26    27   ar
    27    27    28   ar
    28    28    29   ar
    29    20     1    1
    30    29    21   ar
    31     6     2   ar
    32    20     7   ar
    33    29    25   ar
    34    18     9   ar
    35    18    13   ar
    36     1    30    1
    37     1    31    1
    38     3    32    1
    39     5    33    1
    40     8    34    1
    41    11    35    1
    42    12    36    1
    43    14    37    1
    44    15    38    1
    45    16    39    1
    46    17    40    1
    47    19    41    1
    48    22    42    1
    49    24    43    1
