@<TRIPOS>MOLECULE
*****
 39 44 0 0 0
SMALL
GASTEIGER

@<TRIPOS>ATOM
      1 C          -2.7479    1.3554   -0.9723 C.3     1  UNL1        0.0028
      2 C          -1.2991    1.1240   -0.6636 C.ar    1  UNL1       -0.0156
      3 C          -0.0272    1.5105   -1.1128 C.ar    1  UNL1       -0.0323
      4 C           0.9048    0.8533   -0.3052 C.ar    1  UNL1        0.0478
      5 N           0.2070    0.1021    0.6334 N.ar    1  UNL1       -0.3527
      6 C          -1.1065    0.2713    0.3902 C.ar    1  UNL1        0.0692
      7 C          -2.3477   -0.1687    0.9145 C.ar    1  UNL1        0.0919
      8 N          -2.5009   -1.0021    1.9391 N.ar    1  UNL1       -0.2526
      9 C          -3.7836   -1.2835    2.2663 C.ar    1  UNL1        0.0365
     10 C          -4.8822   -0.7278    1.5637 C.ar    1  UNL1        0.0076
     11 C          -6.2957   -0.9053    1.7606 C.ar    1  UNL1       -0.0455
     12 C          -7.0584   -0.1904    0.8667 C.ar    1  UNL1       -0.0231
     13 S          -6.0988    0.7040   -0.2217 S.2     1  UNL1       -0.0963
     14 C          -4.6372    0.1455    0.4904 C.ar    1  UNL1        0.0263
     15 C          -3.3305    0.4538    0.1309 C.ar    1  UNL1       -0.0013
     16 C           2.3686    0.9078   -0.3196 C.ar    1  UNL1        0.0060
     17 C           2.9735    2.1305    0.0103 C.ar    1  UNL1       -0.0520
     18 C           4.3586    2.2476    0.0532 C.ar    1  UNL1       -0.0605
     19 C           5.1554    1.1426   -0.2346 C.ar    1  UNL1       -0.0540
     20 C           4.5821   -0.0911   -0.5793 C.ar    1  UNL1       -0.0173
     21 C           5.4041   -1.1919   -0.8746 C.ar    1  UNL1       -0.0540
     22 C           4.8567   -2.4227   -1.2334 C.ar    1  UNL1       -0.0612
     23 C           3.4782   -2.5682   -1.3081 C.ar    1  UNL1       -0.0611
     24 C           2.6474   -1.4843   -1.0158 C.ar    1  UNL1       -0.0534
     25 C           3.1711   -0.2249   -0.6346 C.ar    1  UNL1       -0.0088
     26 H          -3.0206    0.9875   -1.9643 H       1  UNL1        0.0363
     27 H          -3.0389    2.3977   -0.8215 H       1  UNL1        0.0363
     28 H           0.2127    2.1792   -1.9295 H       1  UNL1        0.0642
     29 H           0.6161   -0.4685    1.3625 H       1  UNL1        0.1660
     30 H          -3.9214   -1.9625    3.1018 H       1  UNL1        0.0836
     31 H          -6.7267   -1.5345    2.5301 H       1  UNL1        0.0629
     32 H          -8.1372   -0.1507    0.8007 H       1  UNL1        0.0694
     33 H           2.3591    2.9963    0.2485 H       1  UNL1        0.0624
     34 H           4.8168    3.1975    0.3151 H       1  UNL1        0.0618
     35 H           6.2370    1.2537   -0.1926 H       1  UNL1        0.0624
     36 H           6.4871   -1.0962   -0.8306 H       1  UNL1        0.0624
     37 H           5.5075   -3.2625   -1.4612 H       1  UNL1        0.0618
     38 H           3.0438   -3.5212   -1.5985 H       1  UNL1        0.0618
     39 H           1.5727   -1.6297   -1.1041 H       1  UNL1        0.0624
@<TRIPOS>BOND
     1     1     2    1
     2     2     3   ar
     3     3     4   ar
     4     4     5   ar
     5     5     6   ar
     6     6     7    1
     7     7     8   ar
     8     8     9   ar
     9     9    10   ar
    10    10    11   ar
    11    11    12   ar
    12    12    13   ar
    13    13    14   ar
    14    14    15   ar
    15     4    16    1
    16    16    17   ar
    17    17    18   ar
    18    18    19   ar
    19    19    20   ar
    20    20    21   ar
    21    21    22   ar
    22    22    23   ar
    23    23    24   ar
    24    24    25   ar
    25    15     1    1
    26    25    16   ar
    27     6     2   ar
    28    15     7   ar
    29    25    20   ar
    30    14    10   ar
    31     1    26    1
    32     1    27    1
    33     3    28    1
    34     5    29    1
    35     9    30    1
    36    11    31    1
    37    12    32    1
    38    17    33    1
    39    18    34    1
    40    19    35    1
    41    21    36    1
    42    22    37    1
    43    23    38    1
    44    24    39    1
