@<TRIPOS>MOLECULE
*****
 38 43 0 0 0
SMALL
GASTEIGER

@<TRIPOS>ATOM
      1 C           2.4747    2.0313    0.0444 C.3     1  UNL1        0.0000
      2 C           1.0472    1.5357   -0.1238 C.ar    1  UNL1        0.0000
      3 C          -0.2628    2.0000   -0.3022 C.ar    1  UNL1        0.0000
      4 C          -1.0825    0.8691   -0.3693 C.ar    1  UNL1        0.0000
      5 N          -0.2848   -0.2642   -0.2517 N.ar    1  UNL1        0.0000
      6 C           0.9823    0.1574   -0.0989 C.ar    1  UNL1        0.0000
      7 C           2.2735   -0.3641    0.0754 C.ar    1  UNL1        0.0000
      8 O           2.8699   -1.5617    0.1790 O.2     1  UNL1        0.0000
      9 C           4.2030   -1.2619    0.3391 C.ar    1  UNL1        0.0000
     10 C           5.2425   -2.1703    0.4909 C.ar    1  UNL1        0.0000
     11 C           6.5084   -1.6024    0.6363 C.ar    1  UNL1        0.0000
     12 C           6.6501   -0.2156    0.6215 C.ar    1  UNL1        0.0000
     13 N           5.6491    0.6849    0.4748 N.ar    1  UNL1        0.0000
     14 C           4.4229    0.1248    0.3340 C.ar    1  UNL1        0.0000
     15 C           3.1641    0.6938    0.1625 C.ar    1  UNL1        0.0000
     16 C          -2.4842    0.6839   -0.5524 C.ar    1  UNL1        0.0000
     17 C          -3.0469    1.2852   -1.6293 C.ar    1  UNL1        0.0000
     18 C          -4.4616    1.1557   -1.9735 C.ar    1  UNL1        0.0000
     19 C          -5.3123    0.4195   -1.2361 C.ar    1  UNL1        0.0000
     20 C          -4.8081   -0.2494   -0.0553 C.ar    1  UNL1        0.0000
     21 C          -5.5503   -0.9916    0.7870 C.2     1  UNL1        0.0000
     22 SI         -4.5071   -1.6256    2.2031 Si      1  UNL1        0.0000
     23 C          -3.0353   -0.7490    1.4497 C.2     1  UNL1        0.0000
     24 C          -3.3741   -0.1157    0.3069 C.ar    1  UNL1        0.0000
     25 H           2.8113    2.5834   -0.8367 H       1  UNL1        0.0000
     26 H           2.5857    2.6253    0.9550 H       1  UNL1        0.0000
     27 H          -0.6006    3.0260   -0.3683 H       1  UNL1        0.0000
     28 H          -0.6097   -1.2218   -0.2823 H       1  UNL1        0.0000
     29 H           5.0731   -3.2387    0.4946 H       1  UNL1        0.0000
     30 H           7.3815   -2.2356    0.7605 H       1  UNL1        0.0000
     31 H           7.6372    0.2287    0.7348 H       1  UNL1        0.0000
     32 H          -2.4500    1.8841   -2.3131 H       1  UNL1        0.0000
     33 H          -4.8076    1.6751   -2.8618 H       1  UNL1        0.0000
     34 H          -6.3593    0.3282   -1.5013 H       1  UNL1        0.0000
     35 H          -6.6042   -1.2077    0.7175 H       1  UNL1        0.0000
     36 H          -4.3544   -3.1003    2.1747 H       1  UNL1        0.0000
     37 H          -4.9088   -1.0473    3.5078 H       1  UNL1        0.0000
     38 H          -2.0716   -0.7691    1.9324 H       1  UNL1        0.0000
@<TRIPOS>BOND
     1     1     2    1
     2     2     3   ar
     3     3     4   ar
     4     4     5   ar
     5     5     6   ar
     6     6     7    1
     7     7     8   ar
     8     8     9   ar
     9     9    10   ar
    10    10    11   ar
    11    11    12   ar
    12    12    13   ar
    13    13    14   ar
    14    14    15   ar
    15     4    16    1
    16    16    17   ar
    17    17    18   ar
    18    18    19   ar
    19    19    20   ar
    20    20    21    2
    21    21    22    1
    22    22    23    1
    23    23    24    2
    24    15     1    1
    25    24    16   ar
    26     6     2   ar
    27    15     7   ar
    28    24    20   ar
    29    14     9   ar
    30     1    25    1
    31     1    26    1
    32     3    27    1
    33     5    28    1
    34    10    29    1
    35    11    30    1
    36    12    31    1
    37    17    32    1
    38    18    33    1
    39    19    34    1
    40    21    35    1
    41    22    36    1
    42    22    37    1
    43    23    38    1
