@<TRIPOS>MOLECULE
*****
 40 46 0 0 0
SMALL
GASTEIGER

@<TRIPOS>ATOM
      1 C           1.1363    1.9022   -0.6710 C.3     1  UNL1        0.0000
      2 C           0.2848    0.7189   -0.1483 C.ar    1  UNL1        0.0000
      3 C          -1.1398    0.6853   -0.0845 C.ar    1  UNL1        0.0000
      4 C          -1.8762   -0.4412    0.4066 C.ar    1  UNL1        0.0000
      5 C          -3.3261   -0.4905    0.4999 C.ar    1  UNL1        0.0000
      6 C          -4.0165   -0.7281    1.7149 C.ar    1  UNL1        0.0000
      7 C          -5.4266   -0.7754    1.8286 C.ar    1  UNL1        0.0000
      8 C          -6.2875   -0.5855    0.7372 C.ar    1  UNL1        0.0000
      9 C          -5.6674   -0.3347   -0.5093 C.ar    1  UNL1        0.0000
     10 N          -6.3107   -0.1237   -1.6678 N.ar    1  UNL1        0.0000
     11 S          -5.1396    0.1126   -2.8188 S.2     1  UNL1        0.0000
     12 N          -3.7665   -0.0315   -1.9016 N.ar    1  UNL1        0.0000
     13 C          -4.1606   -0.2820   -0.6395 C.ar    1  UNL1        0.0000
     14 C          -1.0195   -1.4926    0.8016 C.ar    1  UNL1        0.0000
     15 C          -1.3373   -2.7371    1.2847 C.ar    1  UNL1        0.0000
     16 O          -0.1929   -3.4481    1.5361 O.2     1  UNL1        0.0000
     17 C           0.8729   -2.6582    1.1953 C.ar    1  UNL1        0.0000
     18 C           0.4120   -1.4574    0.7360 C.ar    1  UNL1        0.0000
     19 C           1.1087   -0.3694    0.2709 C.ar    1  UNL1        0.0000
     20 C           2.4508    0.0106    0.0647 C.ar    1  UNL1        0.0000
     21 N           3.7005   -0.5026    0.2277 N.ar    1  UNL1        0.0000
     22 C           4.5611    0.4721   -0.2061 C.ar    1  UNL1        0.0000
     23 C           5.9722    0.4308   -0.2438 C.2     1  UNL1        0.0000
     24 C           6.4607    1.5896   -0.7420 C.2     1  UNL1        0.0000
     25 SI          5.0406    2.8516   -1.2093 Si      1  UNL1        0.0000
     26 C           3.8294    1.5680   -0.6309 C.ar    1  UNL1        0.0000
     27 C           2.4899    1.2877   -0.4649 C.ar    1  UNL1        0.0000
     28 H           0.9298    2.0925   -1.7269 H       1  UNL1        0.0000
     29 H           0.9908    2.7894   -0.0501 H       1  UNL1        0.0000
     30 H          -1.6899    1.5614   -0.4287 H       1  UNL1        0.0000
     31 H          -3.4330   -0.8739    2.6266 H       1  UNL1        0.0000
     32 H          -5.8631   -0.9643    2.8101 H       1  UNL1        0.0000
     33 H          -7.3656   -0.6233    0.8362 H       1  UNL1        0.0000
     34 H          -2.2582   -3.2606    1.4984 H       1  UNL1        0.0000
     35 H           1.8462   -3.1038    1.3363 H       1  UNL1        0.0000
     36 H           3.9456   -1.4133    0.5913 H       1  UNL1        0.0000
     37 H           6.5732   -0.4086    0.0796 H       1  UNL1        0.0000
     38 H           7.4897    1.8690   -0.8979 H       1  UNL1        0.0000
     39 H           5.0461    3.1025   -2.6730 H       1  UNL1        0.0000
     40 H           5.1354    4.0614   -0.3531 H       1  UNL1        0.0000
@<TRIPOS>BOND
     1     1     2    1
     2     2     3   ar
     3     3     4   ar
     4     4     5    1
     5     5     6   ar
     6     6     7   ar
     7     7     8   ar
     8     8     9   ar
     9     9    10   ar
    10    10    11   ar
    11    11    12   ar
    12    12    13   ar
    13     4    14   ar
    14    14    15   ar
    15    15    16   ar
    16    16    17   ar
    17    17    18   ar
    18    18    19   ar
    19    19    20    1
    20    20    21   ar
    21    21    22   ar
    22    22    23    1
    23    23    24    2
    24    24    25    1
    25    25    26    1
    26    26    27   ar
    27    27     1    1
    28    19     2   ar
    29    27    20   ar
    30    13     5   ar
    31    18    14   ar
    32    26    22   ar
    33    13     9   ar
    34     1    28    1
    35     1    29    1
    36     3    30    1
    37     6    31    1
    38     7    32    1
    39     8    33    1
    40    15    34    1
    41    17    35    1
    42    21    36    1
    43    23    37    1
    44    24    38    1
    45    25    39    1
    46    25    40    1
