@<TRIPOS>MOLECULE
*****
 42 48 0 0 0
SMALL
GASTEIGER

@<TRIPOS>ATOM
      1 C           0.3989    0.1448    1.4246 C.3     1  UNL1        0.0000
      2 C          -0.9366   -0.0082    0.6547 C.ar    1  UNL1        0.0000
      3 C          -2.2355   -0.0458    1.2399 C.ar    1  UNL1        0.0000
      4 C          -3.4437   -0.1900    0.4756 C.ar    1  UNL1        0.0000
      5 C          -4.8025   -0.2337    1.0358 C.ar    1  UNL1        0.0000
      6 N          -5.9204   -0.3652    0.3430 N.ar    1  UNL1        0.0000
      7 C          -7.0214   -0.3694    1.1734 C.ar    1  UNL1        0.0000
      8 C          -6.7505   -0.2404    2.5143 C.ar    1  UNL1        0.0000
      9 S          -5.0628   -0.1092    2.7463 S.2     1  UNL1        0.0000
     10 C          -3.1759   -0.2882   -0.9150 C.ar    1  UNL1        0.0000
     11 C          -4.0525   -0.4342   -1.9647 C.ar    1  UNL1        0.0000
     12 N          -3.3188   -0.4829   -3.1322 N.ar    1  UNL1        0.0000
     13 C          -1.9728   -0.3705   -2.8594 C.ar    1  UNL1        0.0000
     14 C          -1.8602   -0.2495   -1.4997 C.ar    1  UNL1        0.0000
     15 C          -0.7169   -0.1108   -0.7487 C.ar    1  UNL1        0.0000
     16 C           0.6744   -0.0361   -0.9622 C.ar    1  UNL1        0.0000
     17 N           1.5560   -0.0634   -1.9898 N.ar    1  UNL1        0.0000
     18 C           2.8100    0.0661   -1.4353 C.ar    1  UNL1        0.0000
     19 C           4.0052    0.0813   -2.2032 C.ar    1  UNL1        0.0000
     20 C           5.1618    0.2152   -1.5174 C.ar    1  UNL1        0.0000
     21 C           5.1561    0.3367   -0.0563 C.ar    1  UNL1        0.0000
     22 C           6.2615    0.4732    0.7017 C.2     1  UNL1        0.0000
     23 SI          5.8093    0.5947    2.5166 Si      1  UNL1        0.0000
     24 C           4.0076    0.4364    2.0500 C.2     1  UNL1        0.0000
     25 C           3.8769    0.3164    0.7167 C.ar    1  UNL1        0.0000
     26 C           2.6857    0.1735   -0.0499 C.ar    1  UNL1        0.0000
     27 C           1.3231    0.1077    0.2446 C.ar    1  UNL1        0.0000
     28 H           0.5583   -0.7019    2.0966 H       1  UNL1        0.0000
     29 H           0.4383    1.1044    1.9457 H       1  UNL1        0.0000
     30 H          -2.2880    0.0412    2.3236 H       1  UNL1        0.0000
     31 H          -8.0094   -0.4707    0.7417 H       1  UNL1        0.0000
     32 H          -7.4432   -0.2177    3.3427 H       1  UNL1        0.0000
     33 H          -5.1309   -0.5093   -2.0037 H       1  UNL1        0.0000
     34 H          -3.7179   -0.5866   -4.0559 H       1  UNL1        0.0000
     35 H          -1.2441   -0.3886   -3.6566 H       1  UNL1        0.0000
     36 H           1.3350   -0.1599   -2.9709 H       1  UNL1        0.0000
     37 H           3.9914   -0.0097   -3.2829 H       1  UNL1        0.0000
     38 H           6.1143    0.2351   -2.0354 H       1  UNL1        0.0000
     39 H           7.2861    0.5134    0.3697 H       1  UNL1        0.0000
     40 H           6.2987   -0.5672    3.2976 H       1  UNL1        0.0000
     41 H           6.1337    1.9234    3.0899 H       1  UNL1        0.0000
     42 H           3.2217    0.4457    2.7864 H       1  UNL1        0.0000
@<TRIPOS>BOND
     1     1     2    1
     2     2     3   ar
     3     3     4   ar
     4     4     5    1
     5     5     6   ar
     6     6     7   ar
     7     7     8   ar
     8     8     9   ar
     9     4    10   ar
    10    10    11   ar
    11    11    12   ar
    12    12    13   ar
    13    13    14   ar
    14    14    15   ar
    15    15    16    1
    16    16    17   ar
    17    17    18   ar
    18    18    19   ar
    19    19    20   ar
    20    20    21   ar
    21    21    22    2
    22    22    23    1
    23    23    24    1
    24    24    25    2
    25    25    26   ar
    26    26    27   ar
    27    27     1    1
    28    15     2   ar
    29    27    16   ar
    30     9     5   ar
    31    14    10   ar
    32    26    18   ar
    33    25    21   ar
    34     1    28    1
    35     1    29    1
    36     3    30    1
    37     7    31    1
    38     8    32    1
    39    11    33    1
    40    12    34    1
    41    13    35    1
    42    17    36    1
    43    19    37    1
    44    20    38    1
    45    22    39    1
    46    23    40    1
    47    23    41    1
    48    24    42    1
