@<TRIPOS>MOLECULE
*****
 42 48 0 0 0
SMALL
GASTEIGER

@<TRIPOS>ATOM
      1 C          -1.9161    1.0320   -1.2799 C.3     1  UNL1        0.0000
      2 C          -0.6600    0.6707   -0.4515 C.ar    1  UNL1        0.0000
      3 C           0.6615    1.1029   -0.7279 C.ar    1  UNL1        0.0000
      4 C           1.7665    0.7238    0.0854 C.ar    1  UNL1        0.0000
      5 C           3.1299    1.1381   -0.1951 C.ar    1  UNL1        0.0000
      6 S           3.5767    2.7947    0.0468 S.2     1  UNL1        0.0000
      7 C           5.2104    2.5286   -0.4442 C.ar    1  UNL1        0.0000
      8 C           5.3737    1.2202   -0.7794 C.ar    1  UNL1        0.0000
      9 SI          6.7863    0.1420   -1.4001 Si      1  UNL1        0.0000
     10 C           5.5718   -1.3368   -1.4134 C.2     1  UNL1        0.0000
     11 C           4.3391   -0.9670   -1.0014 C.2     1  UNL1        0.0000
     12 C           4.2087    0.4172   -0.6490 C.ar    1  UNL1        0.0000
     13 C           1.4288   -0.1112    1.1814 C.ar    1  UNL1        0.0000
     14 C           2.3130   -0.5933    2.1189 C.ar    1  UNL1        0.0000
     15 S           1.5266   -1.5732    3.2949 S.2     1  UNL1        0.0000
     16 C          -0.0167   -1.3491    2.5695 C.ar    1  UNL1        0.0000
     17 C           0.0726   -0.5504    1.4590 C.ar    1  UNL1        0.0000
     18 C          -0.9868   -0.1724    0.6548 C.ar    1  UNL1        0.0000
     19 C          -2.3815   -0.3887    0.6058 C.ar    1  UNL1        0.0000
     20 N          -3.3454   -1.0418    1.2855 N.ar    1  UNL1        0.0000
     21 C          -4.5561   -0.8073    0.6454 C.ar    1  UNL1        0.0000
     22 C          -5.8411   -1.2637    0.9637 C.ar    1  UNL1        0.0000
     23 C          -6.8957   -0.8671    0.1352 C.ar    1  UNL1        0.0000
     24 C          -6.6758   -0.0458   -0.9692 C.ar    1  UNL1        0.0000
     25 C          -5.3883    0.4064   -1.2809 C.ar    1  UNL1        0.0000
     26 C          -4.3090    0.0228   -0.4647 C.ar    1  UNL1        0.0000
     27 C          -2.9231    0.2734   -0.4662 C.ar    1  UNL1        0.0000
     28 H          -1.8361    0.6427   -2.2978 H       1  UNL1        0.0000
     29 H          -2.1001    2.1088   -1.2580 H       1  UNL1        0.0000
     30 H           0.8363    1.7406   -1.5933 H       1  UNL1        0.0000
     31 H           5.9225    3.3425   -0.4532 H       1  UNL1        0.0000
     32 H           7.8677   -0.0684   -0.4058 H       1  UNL1        0.0000
     33 H           7.2398    0.4703   -2.7745 H       1  UNL1        0.0000
     34 H           5.8953   -2.3168   -1.7252 H       1  UNL1        0.0000
     35 H           3.5041   -1.6561   -0.9394 H       1  UNL1        0.0000
     36 H           3.3800   -0.4329    2.1928 H       1  UNL1        0.0000
     37 H          -0.8857   -1.8160    3.0082 H       1  UNL1        0.0000
     38 H          -3.2283   -1.6056    2.1148 H       1  UNL1        0.0000
     39 H          -6.0199   -1.9029    1.8220 H       1  UNL1        0.0000
     40 H          -7.9050   -1.2059    0.3578 H       1  UNL1        0.0000
     41 H          -7.5130    0.2485   -1.5974 H       1  UNL1        0.0000
     42 H          -5.2280    1.0461   -2.1432 H       1  UNL1        0.0000
@<TRIPOS>BOND
     1     1     2    1
     2     2     3   ar
     3     3     4   ar
     4     4     5    1
     5     5     6   ar
     6     6     7   ar
     7     7     8   ar
     8     8     9    1
     9     9    10    1
    10    10    11    2
    11    11    12    1
    12     4    13   ar
    13    13    14   ar
    14    14    15   ar
    15    15    16   ar
    16    16    17   ar
    17    17    18   ar
    18    18    19    1
    19    19    20   ar
    20    20    21   ar
    21    21    22   ar
    22    22    23   ar
    23    23    24   ar
    24    24    25   ar
    25    25    26   ar
    26    26    27   ar
    27    27     1    1
    28    18     2   ar
    29    27    19   ar
    30    12     5   ar
    31    17    13   ar
    32    26    21   ar
    33    12     8   ar
    34     1    28    1
    35     1    29    1
    36     3    30    1
    37     7    31    1
    38     9    32    1
    39     9    33    1
    40    10    34    1
    41    11    35    1
    42    14    36    1
    43    16    37    1
    44    20    38    1
    45    22    39    1
    46    23    40    1
    47    24    41    1
    48    25    42    1
