@<TRIPOS>MOLECULE
*****
 38 44 0 0 0
SMALL
GASTEIGER

@<TRIPOS>ATOM
      1 C           2.1162   -0.8044    1.9585 C.3     1  UNL1        0.0013
      2 C           0.9689   -0.2199    1.0895 C.ar    1  UNL1       -0.0326
      3 C          -0.3792   -0.0308    1.5118 C.ar    1  UNL1       -0.0486
      4 C          -1.3838    0.5133    0.6531 C.ar    1  UNL1        0.0018
      5 C          -2.7668    0.7279    1.0488 C.ar    1  UNL1        0.0475
      6 S          -3.0990    1.7117    2.4297 S.2     1  UNL1       -0.0923
      7 C          -4.7958    1.5228    2.2720 C.ar    1  UNL1        0.0038
      8 C          -5.1103    0.7282    1.2010 C.ar    1  UNL1        0.0968
      9 N          -6.3923    0.4184    0.8612 N.ar    1  UNL1       -0.2514
     10 C          -6.4161   -0.3888   -0.2350 C.ar    1  UNL1        0.0464
     11 C          -5.2868   -0.8430   -0.9270 C.ar    1  UNL1        0.0464
     12 N          -3.9981   -0.5443   -0.6073 N.ar    1  UNL1       -0.2508
     13 C          -3.9410    0.2656    0.4906 C.ar    1  UNL1        0.1039
     14 C          -0.8906    0.8328   -0.6296 C.ar    1  UNL1        0.0288
     15 C          -1.5376    1.3829   -1.7069 C.ar    1  UNL1        0.1000
     16 O          -0.6622    1.5350   -2.7511 O.2     1  UNL1       -0.4698
     17 C           0.5621    1.0785   -2.3400 C.ar    1  UNL1        0.1000
     18 C           0.4674    0.6440   -1.0488 C.ar    1  UNL1        0.0298
     19 C           1.4324    0.1189   -0.2243 C.ar    1  UNL1        0.0128
     20 C           2.8054   -0.1986   -0.2809 C.ar    1  UNL1        0.0525
     21 N           3.8378   -0.1542   -1.1447 N.ar    1  UNL1       -0.3535
     22 C           4.9343   -0.6608   -0.4583 C.ar    1  UNL1        0.0543
     23 C           6.3083   -0.9064   -0.7246 C.ar    1  UNL1       -0.0307
     24 C           6.9136   -1.4417    0.3936 C.ar    1  UNL1       -0.0217
     25 S           5.8654   -1.6511    1.7442 S.2     1  UNL1       -0.0948
     26 C           4.5541   -1.0101    0.8224 C.ar    1  UNL1        0.0409
     27 C           3.1845   -0.7108    0.9301 C.ar    1  UNL1       -0.0035
     28 H           1.8981   -1.8367    2.2419 H       1  UNL1        0.0363
     29 H           2.3105   -0.1643    2.8222 H       1  UNL1        0.0363
     30 H          -0.6488   -0.3206    2.5267 H       1  UNL1        0.0627
     31 H          -5.4742    1.9967    2.9663 H       1  UNL1        0.0715
     32 H          -7.4098   -0.6797   -0.5646 H       1  UNL1        0.0845
     33 H          -5.4021   -1.4876   -1.7942 H       1  UNL1        0.0845
     34 H          -2.5498    1.7060   -1.9042 H       1  UNL1        0.1036
     35 H           1.3525    1.1423   -3.0727 H       1  UNL1        0.1036
     36 H           3.8645    0.1696   -2.1030 H       1  UNL1        0.1659
     37 H           6.8180   -0.7089   -1.6584 H       1  UNL1        0.0644
     38 H           7.9502   -1.7322    0.4969 H       1  UNL1        0.0694
@<TRIPOS>BOND
     1     1     2    1
     2     2     3   ar
     3     3     4   ar
     4     4     5    1
     5     5     6   ar
     6     6     7   ar
     7     7     8   ar
     8     8     9   ar
     9     9    10   ar
    10    10    11   ar
    11    11    12   ar
    12    12    13   ar
    13     4    14   ar
    14    14    15   ar
    15    15    16   ar
    16    16    17   ar
    17    17    18   ar
    18    18    19   ar
    19    19    20    1
    20    20    21   ar
    21    21    22   ar
    22    22    23   ar
    23    23    24   ar
    24    24    25   ar
    25    25    26   ar
    26    26    27   ar
    27    27     1    1
    28    19     2   ar
    29    27    20   ar
    30    13     5   ar
    31    18    14   ar
    32    26    22   ar
    33    13     8   ar
    34     1    28    1
    35     1    29    1
    36     3    30    1
    37     7    31    1
    38    10    32    1
    39    11    33    1
    40    15    34    1
    41    17    35    1
    42    21    36    1
    43    23    37    1
    44    24    38    1
