@<TRIPOS>MOLECULE
*****
 36 41 0 0 0
SMALL
GASTEIGER

@<TRIPOS>ATOM
      1 C           1.3549   -1.4450   -0.3275 C.3     1  UNL1        0.0038
      2 C           0.2666   -0.5085    0.2186 C.ar    1  UNL1       -0.0149
      3 C          -1.1018   -0.6911    0.2610 C.ar    1  UNL1       -0.0464
      4 C          -1.8815    0.3333    0.8263 C.ar    1  UNL1        0.0091
      5 C          -1.2289    1.4836    1.3208 C.ar    1  UNL1        0.0366
      6 N           0.1124    1.7011    1.2919 N.ar    1  UNL1       -0.2526
      7 C           0.7839    0.6900    0.7438 C.ar    1  UNL1        0.0909
      8 C           2.1862    0.6137    0.5719 C.ar    1  UNL1        0.0713
      9 N           3.2812    1.3591    0.8243 N.ar    1  UNL1       -0.3515
     10 C           4.3828    0.6449    0.3744 C.ar    1  UNL1        0.0657
     11 C           5.7438    0.9495    0.3881 C.ar    1  UNL1       -0.0348
     12 C           6.5891   -0.0148   -0.1560 C.ar    1  UNL1       -0.0416
     13 C           6.0494   -1.1894   -0.6665 C.ar    1  UNL1        0.0284
     14 N           4.7379   -1.5104   -0.6933 N.ar    1  UNL1       -0.2532
     15 C           3.9207   -0.5712   -0.1630 C.ar    1  UNL1        0.0926
     16 C           2.5290   -0.5707   -0.0263 C.ar    1  UNL1        0.0097
     17 C          -3.3263    0.2114    0.8928 C.ar    1  UNL1        0.0446
     18 S          -4.2072    0.2187    2.3853 S.2     1  UNL1       -0.0939
     19 C          -5.7469    0.0047    1.6023 C.ar    1  UNL1       -0.0145
     20 C          -5.5228   -0.0514    0.2738 C.ar    1  UNL1        0.0073
     21 C          -6.2087   -0.1918   -0.9569 C.ar    1  UNL1       -0.0361
     22 C          -5.2366   -0.1417   -1.9795 C.ar    1  UNL1        0.0028
     23 N          -3.9529    0.0256   -1.4625 N.ar    1  UNL1       -0.3598
     24 C          -4.2080    0.0632   -0.1205 C.ar    1  UNL1        0.0615
     25 H           1.3851   -2.3815    0.2346 H       1  UNL1        0.0363
     26 H           1.2293   -1.6089   -1.4005 H       1  UNL1        0.0363
     27 H          -1.5542   -1.6027   -0.1164 H       1  UNL1        0.0628
     28 H          -1.8020    2.2962    1.7635 H       1  UNL1        0.0836
     29 H           3.2949    2.2708    1.2618 H       1  UNL1        0.1660
     30 H           6.1246    1.8782    0.7966 H       1  UNL1        0.0639
     31 H           7.6619    0.1467   -0.1823 H       1  UNL1        0.0633
     32 H           6.7041   -1.9463   -1.0924 H       1  UNL1        0.0830
     33 H          -6.6661   -0.0563    2.1665 H       1  UNL1        0.0700
     34 H          -7.2729   -0.3109   -1.1117 H       1  UNL1        0.0639
     35 H          -5.3631   -0.2086   -3.0526 H       1  UNL1        0.0807
     36 H          -3.0579    0.1106   -1.9294 H       1  UNL1        0.1654
@<TRIPOS>BOND
     1     1     2    1
     2     2     3   ar
     3     3     4   ar
     4     4     5   ar
     5     5     6   ar
     6     6     7   ar
     7     7     8    1
     8     8     9   ar
     9     9    10   ar
    10    10    11   ar
    11    11    12   ar
    12    12    13   ar
    13    13    14   ar
    14    14    15   ar
    15    15    16   ar
    16     4    17    1
    17    17    18   ar
    18    18    19   ar
    19    19    20   ar
    20    20    21   ar
    21    21    22   ar
    22    22    23   ar
    23    23    24   ar
    24    16     1    1
    25    24    17   ar
    26     7     2   ar
    27    16     8   ar
    28    24    20   ar
    29    15    10   ar
    30     1    25    1
    31     1    26    1
    32     3    27    1
    33     5    28    1
    34     9    29    1
    35    11    30    1
    36    12    31    1
    37    13    32    1
    38    19    33    1
    39    21    34    1
    40    22    35    1
    41    23    36    1
