@<TRIPOS>MOLECULE
*****
 31 35 0 0 0
SMALL
GASTEIGER

@<TRIPOS>ATOM
      1 C           1.0562    1.7495    0.6336 C.3     1  UNL1        0.0000
      2 C          -0.2655    1.1773    0.1556 C.ar    1  UNL1        0.0000
      3 C          -1.6009    1.5275   -0.0776 C.ar    1  UNL1        0.0000
      4 C          -2.2345    0.3683   -0.5446 C.ar    1  UNL1        0.0000
      5 O          -1.3186   -0.6731   -0.6001 O.2     1  UNL1        0.0000
      6 C          -0.1602   -0.1586   -0.1779 C.ar    1  UNL1        0.0000
      7 C           1.1635   -0.5762    0.0343 C.ar    1  UNL1        0.0000
      8 N           1.9152   -1.6988   -0.0835 N.ar    1  UNL1        0.0000
      9 C           3.1754   -1.3350    0.3233 C.ar    1  UNL1        0.0000
     10 C           4.3303   -2.1456    0.3883 C.2     1  UNL1        0.0000
     11 C           5.3827   -1.4259    0.8399 C.2     1  UNL1        0.0000
     12 SI          4.9033    0.4292    1.2216 Si      1  UNL1        0.0000
     13 C           3.1772    0.0050    0.6843 C.ar    1  UNL1        0.0000
     14 C           1.9061    0.5018    0.5063 C.ar    1  UNL1        0.0000
     15 C          -3.6017    0.1816   -0.9300 C.ar    1  UNL1        0.0000
     16 C          -4.2262   -0.9629   -1.3880 C.ar    1  UNL1        0.0000
     17 C          -5.5842   -0.6479   -1.6375 C.ar    1  UNL1        0.0000
     18 C          -5.7574    0.6812   -1.3263 C.ar    1  UNL1        0.0000
     19 N          -4.5509    1.1744   -0.8988 N.ar    1  UNL1        0.0000
     20 H           1.4099    2.5454   -0.0267 H       1  UNL1        0.0000
     21 H           0.9937    2.0887    1.6707 H       1  UNL1        0.0000
     22 H          -2.0620    2.4926    0.0690 H       1  UNL1        0.0000
     23 H           1.6069   -2.6074   -0.4036 H       1  UNL1        0.0000
     24 H           4.3644   -3.1920    0.1151 H       1  UNL1        0.0000
     25 H           6.3963   -1.7553    0.9997 H       1  UNL1        0.0000
     26 H           5.0586    0.7103    2.6714 H       1  UNL1        0.0000
     27 H           5.6371    1.3453    0.3121 H       1  UNL1        0.0000
     28 H          -3.7475   -1.9242   -1.5264 H       1  UNL1        0.0000
     29 H          -6.3496   -1.3195   -2.0042 H       1  UNL1        0.0000
     30 H          -6.6311    1.3174   -1.3715 H       1  UNL1        0.0000
     31 H          -4.3865    2.1269   -0.6050 H       1  UNL1        0.0000
@<TRIPOS>BOND
     1     1     2    1
     2     2     3   ar
     3     3     4   ar
     4     4     5   ar
     5     5     6   ar
     6     6     7    1
     7     7     8   ar
     8     8     9   ar
     9     9    10    1
    10    10    11    2
    11    11    12    1
    12    12    13    1
    13    13    14   ar
    14     4    15    1
    15    15    16   ar
    16    16    17   ar
    17    17    18   ar
    18    18    19   ar
    19    14     1    1
    20    19    15   ar
    21     6     2   ar
    22    14     7   ar
    23    13     9   ar
    24     1    20    1
    25     1    21    1
    26     3    22    1
    27     8    23    1
    28    10    24    1
    29    11    25    1
    30    12    26    1
    31    12    27    1
    32    16    28    1
    33    17    29    1
    34    18    30    1
    35    19    31    1
