@<TRIPOS>MOLECULE
*****
 33 38 0 0 0
SMALL
GASTEIGER

@<TRIPOS>ATOM
      1 C           2.1192   -1.7690   -0.0793 C.3     1  UNL1        0.0053
      2 C           0.6663   -1.3245   -0.0054 C.ar    1  UNL1        0.0049
      3 C          -0.6415   -1.8218    0.0476 C.ar    1  UNL1       -0.0116
      4 C          -1.4778   -0.7005    0.1032 C.ar    1  UNL1        0.1382
      5 O          -0.7236    0.4554    0.0858 O.2     1  UNL1       -0.4530
      6 C           0.5489    0.0541    0.0209 C.ar    1  UNL1        0.1556
      7 C           1.8340    0.6197   -0.0299 C.ar    1  UNL1        0.0884
      8 N           2.4211    1.8315   -0.0387 N.ar    1  UNL1       -0.3503
      9 C           3.7810    1.5765   -0.1054 C.ar    1  UNL1        0.0650
     10 C           5.0333    2.2379   -0.1533 C.ar    1  UNL1       -0.0204
     11 C           5.9692    1.2215   -0.2120 C.ar    1  UNL1        0.0042
     12 N           5.3456   -0.0047   -0.2018 N.ar    1  UNL1       -0.3592
     13 C           4.0001    0.2170   -0.1362 C.ar    1  UNL1        0.0685
     14 C           2.7516   -0.4096   -0.0880 C.ar    1  UNL1        0.0092
     15 C          -2.9272   -0.5462    0.1725 C.ar    1  UNL1        0.0454
     16 C          -3.7931   -1.6698    0.1944 C.ar    1  UNL1       -0.0489
     17 C          -5.2040   -1.5853    0.2608 C.ar    1  UNL1       -0.0589
     18 C          -5.8910   -0.3656    0.3121 C.ar    1  UNL1       -0.0335
     19 C          -5.0935    0.8026    0.2941 C.ar    1  UNL1        0.1006
     20 N          -5.5698    2.0565    0.3362 N.ar    1  UNL1       -0.1908
     21 S          -4.2510    3.0588    0.2916 S.2     1  UNL1        0.1165
     22 N          -3.0241    1.9537    0.2173 N.ar    1  UNL1       -0.1901
     23 C          -3.5772    0.7265    0.2230 C.ar    1  UNL1        0.1105
     24 H           2.4037   -2.3475    0.8030 H       1  UNL1        0.0364
     25 H           2.3202   -2.3202   -1.0013 H       1  UNL1        0.0364
     26 H          -0.9552   -2.8551    0.0465 H       1  UNL1        0.0658
     27 H           2.0006    2.7510   -0.0052 H       1  UNL1        0.1660
     28 H           5.2302    3.3008   -0.1463 H       1  UNL1        0.0653
     29 H           7.0492    1.2710   -0.2612 H       1  UNL1        0.0807
     30 H           5.7703   -0.9226   -0.2354 H       1  UNL1        0.1654
     31 H          -3.3619   -2.6709    0.1584 H       1  UNL1        0.0625
     32 H          -5.7818   -2.5100    0.2725 H       1  UNL1        0.0618
     33 H          -6.9719   -0.3111    0.3628 H       1  UNL1        0.0640
@<TRIPOS>BOND
     1     1     2    1
     2     2     3   ar
     3     3     4   ar
     4     4     5   ar
     5     5     6   ar
     6     6     7    1
     7     7     8   ar
     8     8     9   ar
     9     9    10   ar
    10    10    11   ar
    11    11    12   ar
    12    12    13   ar
    13    13    14   ar
    14     4    15    1
    15    15    16   ar
    16    16    17   ar
    17    17    18   ar
    18    18    19   ar
    19    19    20   ar
    20    20    21   ar
    21    21    22   ar
    22    22    23   ar
    23    14     1    1
    24    23    15   ar
    25     6     2   ar
    26    14     7   ar
    27    23    19   ar
    28    13     9   ar
    29     1    24    1
    30     1    25    1
    31     3    26    1
    32     8    27    1
    33    10    28    1
    34    11    29    1
    35    12    30    1
    36    16    31    1
    37    17    32    1
    38    18    33    1
