@<TRIPOS>MOLECULE
*****
 48 55 0 0 0
SMALL
GASTEIGER

@<TRIPOS>ATOM
      1 SI         -0.6742    4.3297   -0.6151 Si      1  UNL1        0.0000
      2 C           0.8889    3.3326   -0.4322 C.2     1  UNL1        0.0000
      3 C           0.6194    2.0221   -0.2574 C.ar    1  UNL1        0.0000
      4 C           1.6197    0.9665   -0.2490 C.ar    1  UNL1        0.0000
      5 C           3.0688    1.1281   -0.0654 C.2     1  UNL1        0.0000
      6 C           3.7802   -0.0129   -0.0087 C.2     1  UNL1        0.0000
      7 SI          2.6612   -1.4900   -0.2027 Si      1  UNL1        0.0000
      8 C           1.1992   -0.3209   -0.3965 C.ar    1  UNL1        0.0000
      9 C          -0.2294   -0.6848   -0.4496 C.ar    1  UNL1        0.0000
     10 C          -0.7871   -1.9222   -0.8055 C.ar    1  UNL1        0.0000
     11 C          -0.1754   -2.9928   -1.4178 C.ar    1  UNL1        0.0000
     12 N          -1.1188   -3.9789   -1.6013 N.ar    1  UNL1        0.0000
     13 C          -2.3410   -3.5480   -1.1494 C.ar    1  UNL1        0.0000
     14 C          -2.1771   -2.2673   -0.6724 C.ar    1  UNL1        0.0000
     15 C          -3.1894   -1.4524   -0.1140 C.ar    1  UNL1        0.0000
     16 C          -4.5650   -1.8876    0.0561 C.ar    1  UNL1        0.0000
     17 C          -5.5564   -1.1178    0.6803 C.ar    1  UNL1        0.0000
     18 C          -5.0328    0.0707    1.1725 C.ar    1  UNL1        0.0000
     19 C          -5.8067    0.9206    1.9256 C.ar    1  UNL1        0.0000
     20 S          -4.8817    2.2285    2.5318 S.2     1  UNL1        0.0000
     21 C          -3.4481    1.6409    1.7905 C.ar    1  UNL1        0.0000
     22 C          -3.6701    0.5342    0.9986 C.ar    1  UNL1        0.0000
     23 C          -2.6441   -0.1548    0.2609 C.ar    1  UNL1        0.0000
     24 C          -1.2584    0.2527   -0.0682 C.ar    1  UNL1        0.0000
     25 C          -0.8251    1.6845   -0.1891 C.ar    1  UNL1        0.0000
     26 C          -1.6298    2.7365   -0.4570 C.2     1  UNL1        0.0000
     27 C           5.1784   -0.1176    0.1728 C.ar    1  UNL1        0.0000
     28 C           6.1393    0.8773    0.3426 C.ar    1  UNL1        0.0000
     29 C           7.4031    0.2568    0.4849 C.ar    1  UNL1        0.0000
     30 C           7.1673   -1.0892    0.3968 C.ar    1  UNL1        0.0000
     31 O           5.8477   -1.3256    0.2108 O.2     1  UNL1        0.0000
     32 H          -0.8005    4.9444   -1.9585 H       1  UNL1        0.0000
     33 H          -0.8980    5.2422    0.5320 H       1  UNL1        0.0000
     34 H           1.8543    3.7958   -0.5525 H       1  UNL1        0.0000
     35 H           3.4959    2.1173    0.0334 H       1  UNL1        0.0000
     36 H           2.5558   -2.3180    1.0281 H       1  UNL1        0.0000
     37 H           2.9457   -2.2557   -1.4470 H       1  UNL1        0.0000
     38 H           0.8247   -3.1667   -1.7825 H       1  UNL1        0.0000
     39 H          -0.9408   -4.8784   -2.0299 H       1  UNL1        0.0000
     40 H          -3.2028   -4.1958   -1.2255 H       1  UNL1        0.0000
     41 H          -4.8542   -2.8736   -0.3043 H       1  UNL1        0.0000
     42 H          -6.5728   -1.4634    0.8120 H       1  UNL1        0.0000
     43 H          -6.8518    0.8326    2.1888 H       1  UNL1        0.0000
     44 H          -2.5227    2.1593    1.9927 H       1  UNL1        0.0000
     45 H          -2.6984    2.7339   -0.5988 H       1  UNL1        0.0000
     46 H           5.9438    1.9404    0.3619 H       1  UNL1        0.0000
     47 H           8.3616    0.7330    0.6331 H       1  UNL1        0.0000
     48 H           7.7975   -1.9661    0.4442 H       1  UNL1        0.0000
@<TRIPOS>BOND
     1     1     2    1
     2     2     3    2
     3     3     4   ar
     4     4     5    1
     5     5     6    2
     6     6     7    1
     7     7     8    1
     8     8     9   ar
     9     9    10   ar
    10    10    11   ar
    11    11    12   ar
    12    12    13   ar
    13    13    14   ar
    14    14    15   ar
    15    15    16   ar
    16    16    17   ar
    17    17    18   ar
    18    18    19   ar
    19    19    20   ar
    20    20    21   ar
    21    21    22   ar
    22    22    23   ar
    23    23    24   ar
    24    24    25   ar
    25    25    26    2
    26     6    27    1
    27    27    28   ar
    28    28    29   ar
    29    29    30   ar
    30    30    31   ar
    31    26     1    1
    32    31    27   ar
    33    25     3   ar
    34     8     4   ar
    35    24     9   ar
    36    14    10   ar
    37    23    15   ar
    38    22    18   ar
    39     1    32    1
    40     1    33    1
    41     2    34    1
    42     5    35    1
    43     7    36    1
    44     7    37    1
    45    11    38    1
    46    12    39    1
    47    13    40    1
    48    16    41    1
    49    17    42    1
    50    19    43    1
    51    21    44    1
    52    26    45    1
    53    28    46    1
    54    29    47    1
    55    30    48    1
