@<TRIPOS>MOLECULE
*****
 36 41 0 0 0
SMALL
GASTEIGER

@<TRIPOS>ATOM
      1 C          -0.3528   -1.6311    0.0806 C.3     1  UNL1        0.0039
      2 C           1.0570   -1.0697    0.0585 C.ar    1  UNL1        0.0049
      3 C           2.4001   -1.4558    0.1267 C.ar    1  UNL1       -0.0102
      4 C           3.1493   -0.2780    0.0297 C.ar    1  UNL1        0.1521
      5 O           2.2997    0.8130   -0.0956 O.2     1  UNL1       -0.4516
      6 C           1.0629    0.3055   -0.0747 C.ar    1  UNL1        0.1556
      7 C          -0.2647    0.7568   -0.1489 C.ar    1  UNL1        0.0869
      8 N          -0.9502    1.9159   -0.2770 N.ar    1  UNL1       -0.3515
      9 C          -2.3109    1.6066   -0.2781 C.ar    1  UNL1        0.0479
     10 C          -3.4625    2.4341   -0.3847 C.ar    1  UNL1       -0.0371
     11 C          -4.7638    1.8768   -0.3605 C.ar    1  UNL1       -0.0506
     12 C          -4.7565    0.4926   -0.2262 C.ar    1  UNL1        0.0001
     13 C          -5.8687   -0.3144   -0.1735 C.ar    1  UNL1        0.0094
     14 N          -5.4308   -1.6242   -0.0364 N.ar    1  UNL1       -0.3659
     15 C          -4.0494   -1.6717   -0.0002 C.ar    1  UNL1        0.0100
     16 C          -3.6604   -0.3727   -0.1172 C.ar    1  UNL1        0.0088
     17 C          -2.3732    0.2136   -0.1445 C.ar    1  UNL1        0.0130
     18 C          -1.1127   -0.3344   -0.0625 C.ar    1  UNL1       -0.0063
     19 C           4.5706   -0.1234    0.0472 C.ar    1  UNL1        0.0821
     20 C           5.5858   -1.0524    0.1606 C.ar    1  UNL1       -0.0334
     21 C           6.8173   -0.3509    0.1208 C.ar    1  UNL1       -0.0437
     22 C           6.5226    0.9869   -0.0158 C.ar    1  UNL1        0.0023
     23 N           5.1587    1.1135   -0.0593 N.ar    1  UNL1       -0.3583
     24 H          -0.5303   -2.2989   -0.7662 H       1  UNL1        0.0363
     25 H          -0.5715   -2.1247    1.0309 H       1  UNL1        0.0363
     26 H           2.8027   -2.4527    0.2326 H       1  UNL1        0.0659
     27 H          -0.5571    2.8429   -0.3578 H       1  UNL1        0.1660
     28 H          -3.3486    3.5107   -0.4866 H       1  UNL1        0.0638
     29 H          -5.6566    2.4820   -0.4397 H       1  UNL1        0.0625
     30 H          -6.9269   -0.0967   -0.2188 H       1  UNL1        0.0813
     31 H          -6.0388   -2.4299    0.0277 H       1  UNL1        0.1648
     32 H          -3.5169   -2.6058    0.1026 H       1  UNL1        0.0813
     33 H           5.4608   -2.1224    0.2615 H       1  UNL1        0.0640
     34 H           7.8100   -0.7772    0.1849 H       1  UNL1        0.0633
     35 H           7.1616    1.8568   -0.0856 H       1  UNL1        0.0807
     36 H           4.6441    1.9794   -0.1551 H       1  UNL1        0.1654
@<TRIPOS>BOND
     1     1     2    1
     2     2     3   ar
     3     3     4   ar
     4     4     5   ar
     5     5     6   ar
     6     6     7    1
     7     7     8   ar
     8     8     9   ar
     9     9    10   ar
    10    10    11   ar
    11    11    12   ar
    12    12    13   ar
    13    13    14   ar
    14    14    15   ar
    15    15    16   ar
    16    16    17   ar
    17    17    18   ar
    18     4    19    1
    19    19    20   ar
    20    20    21   ar
    21    21    22   ar
    22    22    23   ar
    23    18     1    1
    24    23    19   ar
    25     6     2   ar
    26    18     7   ar
    27    17     9   ar
    28    16    12   ar
    29     1    24    1
    30     1    25    1
    31     3    26    1
    32     8    27    1
    33    10    28    1
    34    11    29    1
    35    13    30    1
    36    14    31    1
    37    15    32    1
    38    20    33    1
    39    21    34    1
    40    22    35    1
    41    23    36    1
