@<TRIPOS>MOLECULE
*****
 31 35 0 0 0
SMALL
GASTEIGER

@<TRIPOS>ATOM
      1 C          -1.4532    1.5839    0.6007 C.3     1  UNL1        0.0000
      2 C          -0.1435    0.8871    0.2159 C.ar    1  UNL1        0.0000
      3 C           1.2267    1.2226    0.1784 C.ar    1  UNL1        0.0000
      4 C           2.0178    0.1564   -0.2680 C.ar    1  UNL1        0.0000
      5 S           1.0150   -1.2339   -0.6435 S.2     1  UNL1        0.0000
      6 C          -0.3541   -0.4126   -0.2081 C.ar    1  UNL1        0.0000
      7 C          -1.7381   -0.6755   -0.1460 C.ar    1  UNL1        0.0000
      8 N          -2.5988   -1.6827   -0.3991 N.ar    1  UNL1        0.0000
      9 C          -3.8519   -1.1826   -0.0882 C.ar    1  UNL1        0.0000
     10 C          -5.2200   -1.5507   -0.0643 C.ar    1  UNL1        0.0000
     11 C          -5.8813   -0.4270    0.3963 C.ar    1  UNL1        0.0000
     12 N          -4.9852    0.5863    0.6469 N.ar    1  UNL1        0.0000
     13 C          -3.7384    0.1175    0.3478 C.ar    1  UNL1        0.0000
     14 C          -2.3824    0.4527    0.3139 C.ar    1  UNL1        0.0000
     15 C           3.4279    0.1212   -0.4482 C.2     1  UNL1        0.0000
     16 C           4.1780    1.1978   -0.7692 C.2     1  UNL1        0.0000
     17 C           5.6107    0.9600   -0.8732 C.2     1  UNL1        0.0000
     18 C           6.0018   -0.3022   -0.6235 C.2     1  UNL1        0.0000
     19 SI          4.5265   -1.3983   -0.2123 Si      1  UNL1        0.0000
     20 H          -1.6425    2.4475   -0.0417 H       1  UNL1        0.0000
     21 H          -1.4546    1.8624    1.6575 H       1  UNL1        0.0000
     22 H           1.6331    2.1838    0.4672 H       1  UNL1        0.0000
     23 H          -2.4174   -2.6167   -0.7424 H       1  UNL1        0.0000
     24 H          -5.6650   -2.4961   -0.3415 H       1  UNL1        0.0000
     25 H          -6.9367   -0.2615    0.5697 H       1  UNL1        0.0000
     26 H          -5.1752    1.5194    0.9896 H       1  UNL1        0.0000
     27 H           3.7835    2.1902   -0.9514 H       1  UNL1        0.0000
     28 H           6.2904    1.7620   -1.1341 H       1  UNL1        0.0000
     29 H           7.0074   -0.6910   -0.6450 H       1  UNL1        0.0000
     30 H           4.5847   -1.8738    1.1935 H       1  UNL1        0.0000
     31 H           4.3347   -2.4463   -1.2469 H       1  UNL1        0.0000
@<TRIPOS>BOND
     1     1     2    1
     2     2     3   ar
     3     3     4   ar
     4     4     5   ar
     5     5     6   ar
     6     6     7    1
     7     7     8   ar
     8     8     9   ar
     9     9    10   ar
    10    10    11   ar
    11    11    12   ar
    12    12    13   ar
    13    13    14   ar
    14     4    15    1
    15    15    16    2
    16    16    17    1
    17    17    18    2
    18    18    19    1
    19    14     1    1
    20    19    15    1
    21     6     2   ar
    22    14     7   ar
    23    13     9   ar
    24     1    20    1
    25     1    21    1
    26     3    22    1
    27     8    23    1
    28    10    24    1
    29    11    25    1
    30    12    26    1
    31    16    27    1
    32    17    28    1
    33    18    29    1
    34    19    30    1
    35    19    31    1
