@<TRIPOS>MOLECULE
*****
 36 42 0 0 0
SMALL
GASTEIGER

@<TRIPOS>ATOM
      1 C          -1.1235    1.6284    0.1910 C.3     1  UNL1        0.0014
      2 C           0.1175    0.7868   -0.1165 C.ar    1  UNL1       -0.0262
      3 C           1.5124    0.9953   -0.1696 C.ar    1  UNL1       -0.0427
      4 C           2.1880   -0.1755   -0.5151 C.ar    1  UNL1        0.0224
      5 S           1.0831   -1.5039   -0.7565 S.2     1  UNL1       -0.0864
      6 C          -0.2080   -0.5234   -0.4159 C.ar    1  UNL1        0.0398
      7 C          -1.6081   -0.6537   -0.3386 C.ar    1  UNL1        0.0580
      8 N          -2.5580   -1.6052   -0.4969 N.ar    1  UNL1       -0.3534
      9 C          -3.7991   -1.0132   -0.2539 C.ar    1  UNL1        0.0494
     10 C          -5.1002   -1.5480   -0.2829 C.ar    1  UNL1       -0.0356
     11 C          -6.1995   -0.7151    0.0091 C.ar    1  UNL1       -0.0315
     12 C          -5.9328    0.6405    0.3221 C.ar    1  UNL1        0.1006
     13 N          -6.8485    1.5818    0.6260 N.ar    1  UNL1       -0.1908
     14 S          -5.9994    3.0021    0.9097 S.2     1  UNL1        0.1165
     15 N          -4.4219    2.4843    0.6568 N.ar    1  UNL1       -0.1901
     16 C          -4.5963    1.2069    0.3563 C.ar    1  UNL1        0.1093
     17 C          -3.5250    0.3200    0.0532 C.ar    1  UNL1        0.0319
     18 C          -2.1667    0.5612    0.0066 C.ar    1  UNL1       -0.0074
     19 C           3.6259   -0.3983   -0.6735 C.ar    1  UNL1        0.0169
     20 C           4.1893   -1.1332   -1.7441 C.ar    1  UNL1       -0.0513
     21 C           5.5793   -1.3454   -1.9044 C.ar    1  UNL1       -0.0590
     22 C           6.5374   -0.8416   -1.0113 C.ar    1  UNL1       -0.0335
     23 C           6.0413   -0.0920    0.0816 C.ar    1  UNL1        0.1005
     24 N           6.7932    0.4721    1.0391 N.ar    1  UNL1       -0.1908
     25 S           5.7425    1.2220    2.0803 S.2     1  UNL1        0.1165
     26 N           4.2901    0.8748    1.3621 N.ar    1  UNL1       -0.1902
     27 C           4.5560    0.1429    0.2638 C.ar    1  UNL1        0.1080
     28 H          -1.2384    2.4405   -0.5314 H       1  UNL1        0.0363
     29 H          -1.1011    2.0043    1.2171 H       1  UNL1        0.0363
     30 H           2.0084    1.9371    0.0321 H       1  UNL1        0.0632
     31 H          -2.4034   -2.5731   -0.7446 H       1  UNL1        0.1659
     32 H          -5.2660   -2.5945   -0.5272 H       1  UNL1        0.0639
     33 H          -7.2158   -1.0925   -0.0035 H       1  UNL1        0.0640
     34 H           3.5273   -1.5564   -2.5012 H       1  UNL1        0.0624
     35 H           5.9208   -1.9251   -2.7627 H       1  UNL1        0.0618
     36 H           7.5991   -1.0113   -1.1454 H       1  UNL1        0.0640
@<TRIPOS>BOND
     1     1     2    1
     2     2     3   ar
     3     3     4   ar
     4     4     5   ar
     5     5     6   ar
     6     6     7    1
     7     7     8   ar
     8     8     9   ar
     9     9    10   ar
    10    10    11   ar
    11    11    12   ar
    12    12    13   ar
    13    13    14   ar
    14    14    15   ar
    15    15    16   ar
    16    16    17   ar
    17    17    18   ar
    18     4    19    1
    19    19    20   ar
    20    20    21   ar
    21    21    22   ar
    22    22    23   ar
    23    23    24   ar
    24    24    25   ar
    25    25    26   ar
    26    26    27   ar
    27    18     1    1
    28    27    19   ar
    29     6     2   ar
    30    18     7   ar
    31    27    23   ar
    32    17     9   ar
    33    16    12   ar
    34     1    28    1
    35     1    29    1
    36     3    30    1
    37     8    31    1
    38    10    32    1
    39    11    33    1
    40    20    34    1
    41    21    35    1
    42    22    36    1
