@<TRIPOS>MOLECULE
*****
 38 43 0 0 0
SMALL
GASTEIGER

@<TRIPOS>ATOM
      1 C           3.9336   -1.0301   -1.1793 C.3     1  UNL1        0.0023
      2 C           4.9370   -0.1346   -0.4710 C.ar    1  UNL1       -0.0163
      3 C           6.3117    0.1280   -0.4082 C.ar    1  UNL1       -0.0403
      4 C           6.4684    1.1451    0.5279 C.ar    1  UNL1        0.0025
      5 N           5.2266    1.5033    1.0314 N.ar    1  UNL1       -0.3593
      6 C           4.3179    0.7226    0.4187 C.ar    1  UNL1        0.0667
      7 C           2.9355    0.4920    0.3869 C.ar    1  UNL1        0.0677
      8 N           1.7976    0.9305    0.9532 N.ar    1  UNL1       -0.3528
      9 C           0.7457    0.2010    0.4058 C.ar    1  UNL1        0.0478
     10 C          -0.6295    0.2829    0.6663 C.ar    1  UNL1       -0.0300
     11 C          -1.5016   -0.5747   -0.0296 C.ar    1  UNL1       -0.0153
     12 C          -0.9770   -1.4911   -0.9523 C.ar    1  UNL1       -0.0533
     13 C           0.3987   -1.5708   -1.2105 C.ar    1  UNL1       -0.0517
     14 C           1.2760   -0.7145   -0.5253 C.ar    1  UNL1        0.0038
     15 C           2.6665   -0.5119   -0.5220 C.ar    1  UNL1       -0.0086
     16 C          -2.9379   -0.5218    0.2175 C.ar    1  UNL1       -0.0096
     17 C          -3.6583   -1.5437    0.8906 C.ar    1  UNL1       -0.0534
     18 C          -5.0671   -1.5037    1.1500 C.ar    1  UNL1       -0.0606
     19 C          -5.9086   -0.4402    0.7623 C.ar    1  UNL1       -0.0535
     20 C          -5.2041    0.5610    0.0945 C.ar    1  UNL1       -0.0103
     21 C          -5.8146    1.6931   -0.3860 C.ar    1  UNL1       -0.0166
     22 S          -4.6857    2.7240   -1.1710 S.2     1  UNL1       -0.1039
     23 C          -3.3784    1.6480   -0.8685 C.ar    1  UNL1       -0.0160
     24 C          -3.7850    0.5328   -0.1718 C.ar    1  UNL1       -0.0032
     25 H           3.9283   -0.8513   -2.2575 H       1  UNL1        0.0363
     26 H           4.1038   -2.0844   -0.9472 H       1  UNL1        0.0363
     27 H           7.1073   -0.3495   -0.9643 H       1  UNL1        0.0635
     28 H           7.3581    1.6483    0.8820 H       1  UNL1        0.0807
     29 H           5.0507    2.2166    1.7259 H       1  UNL1        0.1654
     30 H           1.7035    1.6555    1.6494 H       1  UNL1        0.1660
     31 H          -1.0151    0.9926    1.3932 H       1  UNL1        0.0644
     32 H          -1.6473   -2.1569   -1.4937 H       1  UNL1        0.0624
     33 H           0.7773   -2.2867   -1.9337 H       1  UNL1        0.0624
     34 H          -3.1068   -2.4171    1.2438 H       1  UNL1        0.0624
     35 H          -5.5111   -2.3471    1.6800 H       1  UNL1        0.0618
     36 H          -6.9709   -0.4289    0.9666 H       1  UNL1        0.0624
     37 H          -6.8558    1.9791   -0.3293 H       1  UNL1        0.0699
     38 H          -2.3895    1.9026   -1.2250 H       1  UNL1        0.0700
@<TRIPOS>BOND
     1     1     2    1
     2     2     3   ar
     3     3     4   ar
     4     4     5   ar
     5     5     6   ar
     6     6     7    1
     7     7     8   ar
     8     8     9   ar
     9     9    10   ar
    10    10    11   ar
    11    11    12   ar
    12    12    13   ar
    13    13    14   ar
    14    14    15   ar
    15    11    16    1
    16    16    17   ar
    17    17    18   ar
    18    18    19   ar
    19    19    20   ar
    20    20    21   ar
    21    21    22   ar
    22    22    23   ar
    23    23    24   ar
    24    15     1    1
    25    24    16   ar
    26     6     2   ar
    27    15     7   ar
    28    24    20   ar
    29    14     9   ar
    30     1    25    1
    31     1    26    1
    32     3    27    1
    33     4    28    1
    34     5    29    1
    35     8    30    1
    36    10    31    1
    37    12    32    1
    38    13    33    1
    39    17    34    1
    40    18    35    1
    41    19    36    1
    42    21    37    1
    43    23    38    1
