@<TRIPOS>MOLECULE
*****
 33 37 0 0 0
SMALL
GASTEIGER

@<TRIPOS>ATOM
      1 C          -2.0367    2.0087    0.7713 C.3     1  UNL1        0.0003
      2 C          -3.2939    1.2151    0.5454 C.ar    1  UNL1       -0.0178
      3 C          -4.6838    1.3743    0.6588 C.ar    1  UNL1       -0.0403
      4 C          -5.2471    0.1692    0.2592 C.ar    1  UNL1        0.0024
      5 N          -4.2365   -0.7093   -0.0912 N.ar    1  UNL1       -0.3604
      6 C          -3.0687   -0.0595    0.0889 C.ar    1  UNL1        0.0509
      7 C          -1.6842   -0.2812   -0.0467 C.ar    1  UNL1        0.0128
      8 C          -1.0197    0.9192    0.3493 C.ar    1  UNL1       -0.0326
      9 C           0.3994    1.0610    0.3440 C.ar    1  UNL1       -0.0492
     10 C           1.2869    0.0135   -0.0646 C.ar    1  UNL1       -0.0054
     11 C           2.7369    0.1396   -0.0804 C.ar    1  UNL1        0.0009
     12 C           3.4572    0.4468    1.0798 C.ar    1  UNL1       -0.0511
     13 C           4.8453    0.5647    1.0344 C.ar    1  UNL1       -0.0430
     14 C           5.4810    0.3748   -0.1803 C.ar    1  UNL1        0.0276
     15 N           4.8314    0.0844   -1.3262 N.ar    1  UNL1       -0.2627
     16 C           3.4823   -0.0212   -1.2488 C.ar    1  UNL1        0.0353
     17 C           0.5858   -1.1531   -0.4414 C.ar    1  UNL1        0.0282
     18 C           1.0766   -2.3667   -0.8529 C.ar    1  UNL1        0.1000
     19 O           0.0401   -3.2259   -1.1103 O.2     1  UNL1       -0.4698
     20 C          -1.1292   -2.5615   -0.8499 C.ar    1  UNL1        0.1000
     21 C          -0.8404   -1.2939   -0.4319 C.ar    1  UNL1        0.0298
     22 H          -1.9760    2.8750    0.1083 H       1  UNL1        0.0362
     23 H          -1.9062    2.2760    1.8227 H       1  UNL1        0.0362
     24 H          -5.2284    2.2492    0.9881 H       1  UNL1        0.0635
     25 H          -6.2812   -0.1415    0.1926 H       1  UNL1        0.0807
     26 H          -4.3616   -1.6577   -0.4198 H       1  UNL1        0.1653
     27 H           0.8231    2.0160    0.6554 H       1  UNL1        0.0627
     28 H           2.9418    0.5845    2.0276 H       1  UNL1        0.0625
     29 H           5.4158    0.7964    1.9268 H       1  UNL1        0.0633
     30 H           6.5609    0.4543   -0.2666 H       1  UNL1        0.0829
     31 H           2.9973   -0.2414   -2.1972 H       1  UNL1        0.0836
     32 H           2.0642   -2.7782   -1.0095 H       1  UNL1        0.1036
     33 H          -2.0326   -3.1317   -1.0074 H       1  UNL1        0.1036
@<TRIPOS>BOND
     1     1     2    1
     2     2     3   ar
     3     3     4   ar
     4     4     5   ar
     5     5     6   ar
     6     6     7    1
     7     7     8   ar
     8     8     9   ar
     9     9    10   ar
    10    10    11    1
    11    11    12   ar
    12    12    13   ar
    13    13    14   ar
    14    14    15   ar
    15    15    16   ar
    16    10    17   ar
    17    17    18   ar
    18    18    19   ar
    19    19    20   ar
    20    20    21   ar
    21     8     1    1
    22    16    11   ar
    23    21    17   ar
    24     6     2   ar
    25    21     7   ar
    26     1    22    1
    27     1    23    1
    28     3    24    1
    29     4    25    1
    30     5    26    1
    31     9    27    1
    32    12    28    1
    33    13    29    1
    34    14    30    1
    35    16    31    1
    36    18    32    1
    37    20    33    1
