@<TRIPOS>MOLECULE
*****
 32 36 0 0 0
SMALL
GASTEIGER

@<TRIPOS>ATOM
      1 C           2.9050    1.1875   -1.1438 C.3     1  UNL1        0.0000
      2 C           3.9486    0.1961   -0.7179 C.ar    1  UNL1        0.0000
      3 C           5.3442    0.0596   -0.6620 C.ar    1  UNL1        0.0000
      4 C           5.5914   -1.1980   -0.1222 C.ar    1  UNL1        0.0000
      5 N           4.3845   -1.8208    0.1473 N.ar    1  UNL1        0.0000
      6 C           3.4132   -0.9622   -0.2182 C.ar    1  UNL1        0.0000
      7 C           1.9983   -0.9069   -0.2399 C.ar    1  UNL1        0.0000
      8 N           1.1654   -1.8610    0.1757 N.ar    1  UNL1        0.0000
      9 C          -0.1399   -1.5154    0.0272 C.ar    1  UNL1        0.0000
     10 C          -0.6072   -0.2898   -0.4941 C.ar    1  UNL1        0.0000
     11 C           0.3334    0.6677   -0.9092 C.ar    1  UNL1        0.0000
     12 C           1.6716    0.3503   -0.7800 C.ar    1  UNL1        0.0000
     13 C          -2.0383   -0.0212   -0.5775 C.ar    1  UNL1        0.0000
     14 S          -2.7891    0.1949   -2.1227 S.2     1  UNL1        0.0000
     15 C          -4.3576    0.4299   -1.4363 C.ar    1  UNL1        0.0000
     16 C          -4.3039    0.3483   -0.0714 C.ar    1  UNL1        0.0000
     17 C          -5.3347    0.4813    0.9117 C.2     1  UNL1        0.0000
     18 C          -4.9192    0.3500    2.1907 C.2     1  UNL1        0.0000
     19 SI         -3.0339    0.0204    2.2824 Si      1  UNL1        0.0000
     20 C          -2.9876    0.0919    0.3966 C.ar    1  UNL1        0.0000
     21 H           2.9442    1.3850   -2.2177 H       1  UNL1        0.0000
     22 H           2.9476    2.1042   -0.5508 H       1  UNL1        0.0000
     23 H           6.0964    0.7733   -0.9712 H       1  UNL1        0.0000
     24 H           6.5214   -1.7067    0.0935 H       1  UNL1        0.0000
     25 H           4.2507   -2.7437    0.5415 H       1  UNL1        0.0000
     26 H          -0.8427   -2.2824    0.3461 H       1  UNL1        0.0000
     27 H           0.0224    1.6259   -1.3122 H       1  UNL1        0.0000
     28 H          -5.2094    0.6135   -2.0759 H       1  UNL1        0.0000
     29 H          -6.3665    0.6732    0.6402 H       1  UNL1        0.0000
     30 H          -5.5136    0.4117    3.0879 H       1  UNL1        0.0000
     31 H          -2.7596   -1.3302    2.8325 H       1  UNL1        0.0000
     32 H          -2.3349    1.1464    2.9496 H       1  UNL1        0.0000
@<TRIPOS>BOND
     1     1     2    1
     2     2     3   ar
     3     3     4   ar
     4     4     5   ar
     5     5     6   ar
     6     6     7    1
     7     7     8   ar
     8     8     9   ar
     9     9    10   ar
    10    10    11   ar
    11    11    12   ar
    12    10    13    1
    13    13    14   ar
    14    14    15   ar
    15    15    16   ar
    16    16    17    1
    17    17    18    2
    18    18    19    1
    19    19    20    1
    20    12     1    1
    21    20    13   ar
    22     6     2   ar
    23    12     7   ar
    24    20    16   ar
    25     1    21    1
    26     1    22    1
    27     3    23    1
    28     4    24    1
    29     5    25    1
    30     9    26    1
    31    11    27    1
    32    15    28    1
    33    17    29    1
    34    18    30    1
    35    19    31    1
    36    19    32    1
