@<TRIPOS>MOLECULE
*****
 42 48 0 0 0
SMALL
GASTEIGER

@<TRIPOS>ATOM
      1 C          -2.1159   -1.4702    1.9644 C.3     1  UNL1        0.0000
      2 C          -3.2396   -0.7022    1.2472 C.ar    1  UNL1        0.0000
      3 C          -4.5875   -0.7810    1.5481 C.ar    1  UNL1        0.0000
      4 C          -5.4772   -0.0118    0.7933 C.ar    1  UNL1        0.0000
      5 C          -5.0362    0.8318   -0.2547 C.ar    1  UNL1        0.0000
      6 C          -5.9611    1.5897   -0.9910 C.ar    1  UNL1        0.0000
      7 C          -5.5449    2.4266   -2.0273 C.ar    1  UNL1        0.0000
      8 C          -4.1950    2.5193   -2.3446 C.ar    1  UNL1        0.0000
      9 C          -3.2576    1.7751   -1.6262 C.ar    1  UNL1        0.0000
     10 C          -3.6562    0.9222   -0.5740 C.ar    1  UNL1        0.0000
     11 C          -2.7828    0.1440    0.1938 C.ar    1  UNL1        0.0000
     12 C          -1.3602   -0.0402    0.1865 C.ar    1  UNL1        0.0000
     13 N          -0.2747    0.4108   -0.5060 N.ar    1  UNL1        0.0000
     14 C           0.8153   -0.2104    0.0457 C.ar    1  UNL1        0.0000
     15 C           2.1717   -0.0693   -0.3294 C.2     1  UNL1        0.0000
     16 C           2.9772   -0.8433    0.4439 C.2     1  UNL1        0.0000
     17 SI          1.9018   -1.8472    1.7771 Si      1  UNL1        0.0000
     18 C           0.3928   -1.0352    1.0692 C.ar    1  UNL1        0.0000
     19 C          -0.9777   -0.9362    1.1674 C.ar    1  UNL1        0.0000
     20 C           4.3879   -0.9543    0.3528 C.ar    1  UNL1        0.0000
     21 S           5.3918   -1.9639    1.3688 S.2     1  UNL1        0.0000
     22 C           6.8727   -1.4980    0.5968 C.ar    1  UNL1        0.0000
     23 C           6.5617   -0.6190   -0.3756 C.ar    1  UNL1        0.0000
     24 C           7.1940    0.1477   -1.3646 C.ar    1  UNL1        0.0000
     25 C           6.1556    0.8358   -2.0017 C.ar    1  UNL1        0.0000
     26 O           4.8996    0.5658   -1.4924 O.2     1  UNL1        0.0000
     27 C           5.2251   -0.3243   -0.5094 C.ar    1  UNL1        0.0000
     28 H          -2.2365   -2.5490    1.8383 H       1  UNL1        0.0000
     29 H          -2.0535   -1.1809    3.0163 H       1  UNL1        0.0000
     30 H          -4.9495   -1.4202    2.3465 H       1  UNL1        0.0000
     31 H          -6.5388   -0.0718    1.0279 H       1  UNL1        0.0000
     32 H          -7.0230    1.5336   -0.7609 H       1  UNL1        0.0000
     33 H          -6.2769    3.0048   -2.5850 H       1  UNL1        0.0000
     34 H          -3.8691    3.1706   -3.1513 H       1  UNL1        0.0000
     35 H          -2.2128    1.8694   -1.8978 H       1  UNL1        0.0000
     36 H          -0.2661    1.0691   -1.2718 H       1  UNL1        0.0000
     37 H           2.4938    0.5792   -1.1328 H       1  UNL1        0.0000
     38 H           1.9871   -3.3110    1.5281 H       1  UNL1        0.0000
     39 H           2.2412   -1.4166    3.1596 H       1  UNL1        0.0000
     40 H           7.8268   -1.8964    0.9107 H       1  UNL1        0.0000
     41 H           8.2448    0.2148   -1.6064 H       1  UNL1        0.0000
     42 H           6.1518    1.5422   -2.8215 H       1  UNL1        0.0000
@<TRIPOS>BOND
     1     1     2    1
     2     2     3   ar
     3     3     4   ar
     4     4     5   ar
     5     5     6   ar
     6     6     7   ar
     7     7     8   ar
     8     8     9   ar
     9     9    10   ar
    10    10    11   ar
    11    11    12    1
    12    12    13   ar
    13    13    14   ar
    14    14    15    1
    15    15    16    2
    16    16    17    1
    17    17    18    1
    18    18    19   ar
    19    16    20    1
    20    20    21   ar
    21    21    22   ar
    22    22    23   ar
    23    23    24   ar
    24    24    25   ar
    25    25    26   ar
    26    26    27   ar
    27    19     1    1
    28    27    20   ar
    29    11     2   ar
    30    19    12   ar
    31    27    23   ar
    32    10     5   ar
    33    18    14   ar
    34     1    28    1
    35     1    29    1
    36     3    30    1
    37     4    31    1
    38     6    32    1
    39     7    33    1
    40     8    34    1
    41     9    35    1
    42    13    36    1
    43    15    37    1
    44    17    38    1
    45    17    39    1
    46    22    40    1
    47    24    41    1
    48    25    42    1
