@<TRIPOS>MOLECULE
*****
 41 46 0 0 0
SMALL
GASTEIGER

@<TRIPOS>ATOM
      1 C          -1.4336    1.3184   -2.2683 C.3     1  UNL1        0.0023
      2 C          -2.7520    1.0504   -1.5192 C.ar    1  UNL1       -0.0332
      3 C          -4.0152    1.4045   -1.9565 C.ar    1  UNL1       -0.0570
      4 C          -5.1068    1.0817   -1.1456 C.ar    1  UNL1       -0.0537
      5 C          -4.9499    0.4118    0.0922 C.ar    1  UNL1       -0.0172
      6 C          -6.0712    0.1043    0.8794 C.ar    1  UNL1       -0.0540
      7 C          -5.9349   -0.5555    2.1014 C.ar    1  UNL1       -0.0612
      8 C          -4.6731   -0.9194    2.5571 C.ar    1  UNL1       -0.0611
      9 C          -3.5439   -0.6241    1.7916 C.ar    1  UNL1       -0.0534
     10 C          -3.6591    0.0427    0.5525 C.ar    1  UNL1       -0.0085
     11 C          -2.5813    0.3754   -0.2745 C.ar    1  UNL1        0.0098
     12 C          -1.1656    0.1849   -0.1743 C.ar    1  UNL1        0.0534
     13 N          -0.2589   -0.3510    0.6753 N.ar    1  UNL1       -0.3526
     14 C           1.0022   -0.1823    0.1226 C.ar    1  UNL1        0.0663
     15 C           2.2677   -0.5492    0.5877 C.ar    1  UNL1       -0.0271
     16 C           3.3646   -0.2220   -0.2233 C.ar    1  UNL1        0.0036
     17 C           3.0998    0.4395   -1.4289 C.ar    1  UNL1        0.0361
     18 N           1.8864    0.8087   -1.9055 N.ar    1  UNL1       -0.2526
     19 C           0.8491    0.4818   -1.1025 C.ar    1  UNL1        0.0925
     20 C          -0.5212    0.7021   -1.2701 C.ar    1  UNL1        0.0082
     21 C           4.7356   -0.5606    0.1778 C.ar    1  UNL1        0.0017
     22 C           5.7579    0.3971    0.2054 C.ar    1  UNL1       -0.0511
     23 C           7.0478    0.0394    0.5951 C.ar    1  UNL1       -0.0430
     24 C           7.2855   -1.2766    0.9510 C.ar    1  UNL1        0.0276
     25 N           6.3370   -2.2353    0.9414 N.ar    1  UNL1       -0.2627
     26 C           5.0942   -1.8560    0.5554 C.ar    1  UNL1        0.0353
     27 H          -1.4142    0.7927   -3.2261 H       1  UNL1        0.0363
     28 H          -1.2590    2.3912   -2.3810 H       1  UNL1        0.0363
     29 H          -4.1606    1.9182   -2.9012 H       1  UNL1        0.0621
     30 H          -6.1030    1.3591   -1.4871 H       1  UNL1        0.0624
     31 H          -7.0691    0.3788    0.5436 H       1  UNL1        0.0624
     32 H          -6.8159   -0.7843    2.6955 H       1  UNL1        0.0618
     33 H          -4.5664   -1.4334    3.5088 H       1  UNL1        0.0618
     34 H          -2.5747   -0.9212    2.1745 H       1  UNL1        0.0624
     35 H          -0.4480   -0.7989    1.5599 H       1  UNL1        0.1660
     36 H           2.3907   -1.0511    1.5419 H       1  UNL1        0.0645
     37 H           3.9185    0.7014   -2.0978 H       1  UNL1        0.0836
     38 H           5.5551    1.4318   -0.0626 H       1  UNL1        0.0625
     39 H           7.8462    0.7726    0.6237 H       1  UNL1        0.0633
     40 H           8.2732   -1.6038    1.2628 H       1  UNL1        0.0829
     41 H           4.3658   -2.6638    0.5500 H       1  UNL1        0.0836
@<TRIPOS>BOND
     1     1     2    1
     2     2     3   ar
     3     3     4   ar
     4     4     5   ar
     5     5     6   ar
     6     6     7   ar
     7     7     8   ar
     8     8     9   ar
     9     9    10   ar
    10    10    11   ar
    11    11    12    1
    12    12    13   ar
    13    13    14   ar
    14    14    15   ar
    15    15    16   ar
    16    16    17   ar
    17    17    18   ar
    18    18    19   ar
    19    19    20   ar
    20    16    21    1
    21    21    22   ar
    22    22    23   ar
    23    23    24   ar
    24    24    25   ar
    25    25    26   ar
    26    20     1    1
    27    26    21   ar
    28    11     2   ar
    29    20    12   ar
    30    10     5   ar
    31    19    14   ar
    32     1    27    1
    33     1    28    1
    34     3    29    1
    35     4    30    1
    36     6    31    1
    37     7    32    1
    38     8    33    1
    39     9    34    1
    40    13    35    1
    41    15    36    1
    42    17    37    1
    43    22    38    1
    44    23    39    1
    45    24    40    1
    46    26    41    1
