@<TRIPOS>MOLECULE
*****
 36 41 0 0 0
SMALL
GASTEIGER

@<TRIPOS>ATOM
      1 C          -0.5958    1.1463   -2.0521 C.3     1  UNL1        0.0037
      2 C          -1.8955    0.4152   -1.6486 C.ar    1  UNL1       -0.0332
      3 C          -3.1038    0.4944   -2.3160 C.ar    1  UNL1       -0.0570
      4 C          -4.1852   -0.2325   -1.8073 C.ar    1  UNL1       -0.0537
      5 C          -4.0714   -1.0391   -0.6480 C.ar    1  UNL1       -0.0172
      6 C          -5.1811   -1.7550   -0.1694 C.ar    1  UNL1       -0.0540
      7 C          -5.0854   -2.5589    0.9674 C.ar    1  UNL1       -0.0612
      8 C          -3.8763   -2.6612    1.6453 C.ar    1  UNL1       -0.0611
      9 C          -2.7606   -1.9550    1.1911 C.ar    1  UNL1       -0.0534
     10 C          -2.8364   -1.1346    0.0445 C.ar    1  UNL1       -0.0085
     11 C          -1.7691   -0.3946   -0.4747 C.ar    1  UNL1        0.0099
     12 C          -0.4029   -0.2197   -0.0726 C.ar    1  UNL1        0.0549
     13 N           0.4434   -0.6309    0.9095 N.ar    1  UNL1       -0.3513
     14 C           1.6585   -0.0226    0.6464 C.ar    1  UNL1        0.0864
     15 C           2.9816    0.1061    1.1129 C.ar    1  UNL1        0.0103
     16 C           3.5863    0.9665    0.1992 C.ar    1  UNL1        0.1626
     17 O           2.6880    1.3461   -0.7850 O.2     1  UNL1       -0.4509
     18 C           1.5258    0.7304   -0.4743 C.ar    1  UNL1        0.1573
     19 C           0.2277    0.6291   -0.9497 C.ar    1  UNL1        0.0251
     20 C           4.9489    1.4496    0.1870 C.ar    1  UNL1        0.1433
     21 N           5.4271    2.1805   -0.8039 N.ar    1  UNL1       -0.2442
     22 C           6.7447    2.5094   -0.5569 C.ar    1  UNL1        0.0356
     23 C           7.2661    2.0262    0.6240 C.ar    1  UNL1       -0.0041
     24 S           6.0732    1.1159    1.4518 S.2     1  UNL1       -0.0727
     25 H          -0.7299    2.2304   -2.0067 H       1  UNL1        0.0363
     26 H          -0.2485    0.8113   -3.0335 H       1  UNL1        0.0363
     27 H          -3.2154    1.1004   -3.2094 H       1  UNL1        0.0621
     28 H          -5.1391   -0.1700   -2.3294 H       1  UNL1        0.0624
     29 H          -6.1376   -1.6922   -0.6839 H       1  UNL1        0.0624
     30 H          -5.9568   -3.1043    1.3214 H       1  UNL1        0.0618
     31 H          -3.8000   -3.2910    2.5281 H       1  UNL1        0.0618
     32 H          -1.8311   -2.0544    1.7395 H       1  UNL1        0.0624
     33 H           0.2735   -1.2553    1.6868 H       1  UNL1        0.1660
     34 H           3.4325   -0.3529    1.9806 H       1  UNL1        0.0677
     35 H           7.2828    3.1108   -1.2807 H       1  UNL1        0.0835
     36 H           8.2618    2.1556    1.0237 H       1  UNL1        0.0709
@<TRIPOS>BOND
     1     1     2    1
     2     2     3   ar
     3     3     4   ar
     4     4     5   ar
     5     5     6   ar
     6     6     7   ar
     7     7     8   ar
     8     8     9   ar
     9     9    10   ar
    10    10    11   ar
    11    11    12    1
    12    12    13   ar
    13    13    14   ar
    14    14    15   ar
    15    15    16   ar
    16    16    17   ar
    17    17    18   ar
    18    18    19   ar
    19    16    20    1
    20    20    21   ar
    21    21    22   ar
    22    22    23   ar
    23    23    24   ar
    24    19     1    1
    25    24    20   ar
    26    11     2   ar
    27    19    12   ar
    28    10     5   ar
    29    18    14   ar
    30     1    25    1
    31     1    26    1
    32     3    27    1
    33     4    28    1
    34     6    29    1
    35     7    30    1
    36     8    31    1
    37     9    32    1
    38    13    33    1
    39    15    34    1
    40    22    35    1
    41    23    36    1
