@<TRIPOS>MOLECULE
*****
 39 45 0 0 0
SMALL
GASTEIGER

@<TRIPOS>ATOM
      1 C          -1.6579   -1.4975    1.1481 C.3     1  UNL1        0.0022
      2 C          -3.1353   -1.1492    0.8180 C.ar    1  UNL1       -0.0331
      3 C          -4.2831   -1.8490    1.2978 C.ar    1  UNL1       -0.0569
      4 C          -5.6124   -1.4717    0.9520 C.ar    1  UNL1       -0.0507
      5 C          -5.6432   -0.3572    0.1049 C.ar    1  UNL1        0.0205
      6 C          -6.7392    0.2714   -0.4213 C.ar    1  UNL1        0.0994
      7 O          -6.3324    1.3241   -1.2021 O.2     1  UNL1       -0.4698
      8 C          -4.9610    1.3642   -1.1711 C.ar    1  UNL1        0.1000
      9 C          -4.5009    0.3500   -0.3807 C.ar    1  UNL1        0.0292
     10 C          -3.2178   -0.0097   -0.0504 C.ar    1  UNL1        0.0128
     11 C          -1.9000    0.4171   -0.3158 C.ar    1  UNL1        0.0534
     12 N          -1.2489    1.3735   -1.0132 N.ar    1  UNL1       -0.3527
     13 C           0.0959    1.1493   -0.7838 C.ar    1  UNL1        0.0656
     14 C           1.3794    1.6515   -1.1089 C.ar    1  UNL1       -0.0119
     15 C           2.2832    0.8286   -0.4448 C.ar    1  UNL1        0.0562
     16 N           1.5796   -0.1318    0.2539 N.ar    1  UNL1       -0.3523
     17 C           0.2467    0.0684    0.0435 C.ar    1  UNL1        0.0688
     18 C          -1.0319   -0.4106    0.3509 C.ar    1  UNL1        0.0061
     19 C           3.7216    0.8842   -0.4245 C.ar    1  UNL1        0.0447
     20 S           4.6156    2.1029   -1.3047 S.2     1  UNL1       -0.0925
     21 C           6.1635    1.5166   -0.7959 C.ar    1  UNL1        0.0002
     22 C           5.9571    0.4497   -0.0005 C.ar    1  UNL1        0.0542
     23 N           6.9181   -0.3033    0.6084 N.ar    1  UNL1       -0.3602
     24 C           6.1405   -1.2409    1.2815 C.ar    1  UNL1        0.0028
     25 C           4.7631   -1.0263    1.0602 C.ar    1  UNL1       -0.0355
     26 C           4.6375    0.1046    0.2027 C.ar    1  UNL1        0.0158
     27 H          -1.4022   -2.4908    0.7720 H       1  UNL1        0.0363
     28 H          -1.4665   -1.3927    2.2185 H       1  UNL1        0.0363
     29 H          -4.1393   -2.7059    1.9544 H       1  UNL1        0.0621
     30 H          -6.4850   -1.9989    1.3131 H       1  UNL1        0.0625
     31 H          -7.8081    0.1260   -0.3588 H       1  UNL1        0.1035
     32 H          -4.5051    2.1535   -1.7500 H       1  UNL1        0.1036
     33 H          -1.6155    2.1164   -1.5935 H       1  UNL1        0.1660
     34 H           1.6118    2.4973   -1.7410 H       1  UNL1        0.0660
     35 H           1.9506   -0.8716    0.8323 H       1  UNL1        0.1660
     36 H           7.0905    1.9785   -1.1042 H       1  UNL1        0.0714
     37 H           7.9231   -0.1867    0.5639 H       1  UNL1        0.1653
     38 H           6.6326   -2.0007    1.8753 H       1  UNL1        0.0807
     39 H           3.9756   -1.6332    1.4833 H       1  UNL1        0.0639
@<TRIPOS>BOND
     1     1     2    1
     2     2     3   ar
     3     3     4   ar
     4     4     5   ar
     5     5     6   ar
     6     6     7   ar
     7     7     8   ar
     8     8     9   ar
     9     9    10   ar
    10    10    11    1
    11    11    12   ar
    12    12    13   ar
    13    13    14   ar
    14    14    15   ar
    15    15    16   ar
    16    16    17   ar
    17    17    18   ar
    18    15    19    1
    19    19    20   ar
    20    20    21   ar
    21    21    22   ar
    22    22    23   ar
    23    23    24   ar
    24    24    25   ar
    25    25    26   ar
    26    18     1    1
    27    26    19   ar
    28    10     2   ar
    29    18    11   ar
    30    26    22   ar
    31     9     5   ar
    32    17    13   ar
    33     1    27    1
    34     1    28    1
    35     3    29    1
    36     4    30    1
    37     6    31    1
    38     8    32    1
    39    12    33    1
    40    14    34    1
    41    16    35    1
    42    21    36    1
    43    23    37    1
    44    24    38    1
    45    25    39    1
