@<TRIPOS>MOLECULE
*****
 41 46 0 0 0
SMALL
GASTEIGER

@<TRIPOS>ATOM
      1 SI          1.8898   -3.7790   -1.8514 Si      1  UNL1        0.0000
      2 C           0.3963   -2.7906   -1.3832 C.2     1  UNL1        0.0000
      3 C           0.7301   -1.6284   -0.7839 C.ar    1  UNL1        0.0000
      4 C          -0.2402   -0.6539   -0.3128 C.ar    1  UNL1        0.0000
      5 C          -1.7052   -0.7540   -0.3967 C.2     1  UNL1        0.0000
      6 C          -2.4029    0.2831    0.1066 C.2     1  UNL1        0.0000
      7 SI         -1.2401    1.5720    0.7910 Si      1  UNL1        0.0000
      8 C           0.2178    0.4829    0.2738 C.ar    1  UNL1        0.0000
      9 C           1.6560    0.8018    0.4706 C.ar    1  UNL1        0.0000
     10 C           2.0431    1.9947    1.0852 C.ar    1  UNL1        0.0000
     11 C           3.3853    2.3070    1.2776 C.ar    1  UNL1        0.0000
     12 C           4.4002    1.4255    0.8572 C.ar    1  UNL1        0.0000
     13 C           5.8231    1.5903    0.9776 C.ar    1  UNL1        0.0000
     14 C           6.5257    0.5354    0.4619 C.ar    1  UNL1        0.0000
     15 S           5.4923   -0.6499   -0.1648 S.2     1  UNL1        0.0000
     16 C           4.0374    0.2157    0.2347 C.ar    1  UNL1        0.0000
     17 C           2.6604   -0.1233    0.0268 C.ar    1  UNL1        0.0000
     18 C           2.1972   -1.3918   -0.6290 C.ar    1  UNL1        0.0000
     19 C           2.9324   -2.4092   -1.1303 C.2     1  UNL1        0.0000
     20 C          -3.8541    0.4102    0.1504 C.ar    1  UNL1        0.0000
     21 C          -4.6159   -0.5177    0.8730 C.ar    1  UNL1        0.0000
     22 C          -6.0076   -0.4103    0.9204 C.ar    1  UNL1        0.0000
     23 C          -6.6510    0.6219    0.2407 C.ar    1  UNL1        0.0000
     24 C          -5.9043    1.5449   -0.4892 C.ar    1  UNL1        0.0000
     25 C          -4.5121    1.4388   -0.5364 C.ar    1  UNL1        0.0000
     26 H           2.0559   -3.9078   -3.3194 H       1  UNL1        0.0000
     27 H           2.0035   -5.0438   -1.0856 H       1  UNL1        0.0000
     28 H          -0.5931   -3.1604   -1.5961 H       1  UNL1        0.0000
     29 H          -2.1777   -1.6187   -0.8456 H       1  UNL1        0.0000
     30 H          -1.2763    2.8510    0.0339 H       1  UNL1        0.0000
     31 H          -1.3227    1.7239    2.2668 H       1  UNL1        0.0000
     32 H           1.3207    2.7248    1.4374 H       1  UNL1        0.0000
     33 H           3.6505    3.2453    1.7601 H       1  UNL1        0.0000
     34 H           6.2983    2.4536    1.4273 H       1  UNL1        0.0000
     35 H           7.5988    0.4078    0.4254 H       1  UNL1        0.0000
     36 H           3.9957   -2.5389   -1.1727 H       1  UNL1        0.0000
     37 H          -4.1289   -1.3287    1.4102 H       1  UNL1        0.0000
     38 H          -6.5880   -1.1335    1.4873 H       1  UNL1        0.0000
     39 H          -7.7342    0.7044    0.2759 H       1  UNL1        0.0000
     40 H          -6.4055    2.3454   -1.0271 H       1  UNL1        0.0000
     41 H          -3.9505    2.1597   -1.1262 H       1  UNL1        0.0000
@<TRIPOS>BOND
     1     1     2    1
     2     2     3    2
     3     3     4   ar
     4     4     5    1
     5     5     6    2
     6     6     7    1
     7     7     8    1
     8     8     9   ar
     9     9    10   ar
    10    10    11   ar
    11    11    12   ar
    12    12    13   ar
    13    13    14   ar
    14    14    15   ar
    15    15    16   ar
    16    16    17   ar
    17    17    18   ar
    18    18    19    2
    19     6    20    1
    20    20    21   ar
    21    21    22   ar
    22    22    23   ar
    23    23    24   ar
    24    24    25   ar
    25    19     1    1
    26    25    20   ar
    27    18     3   ar
    28     8     4   ar
    29    17     9   ar
    30    16    12   ar
    31     1    26    1
    32     1    27    1
    33     2    28    1
    34     5    29    1
    35     7    30    1
    36     7    31    1
    37    10    32    1
    38    11    33    1
    39    13    34    1
    40    14    35    1
    41    19    36    1
    42    21    37    1
    43    22    38    1
    44    23    39    1
    45    24    40    1
    46    25    41    1
