@<TRIPOS>MOLECULE
*****
 39 46 0 0 0
SMALL
GASTEIGER

@<TRIPOS>ATOM
      1 C           2.6787    1.9617    0.6184 C.3     1  UNL1        0.0009
      2 C           3.9619    1.1286    0.3640 C.ar    1  UNL1       -0.0317
      3 C           5.2802    1.6084    0.3853 C.ar    1  UNL1       -0.0555
      4 C           6.3785    0.7504    0.1370 C.ar    1  UNL1       -0.0332
      5 C           6.1094   -0.6272   -0.1381 C.ar    1  UNL1        0.1005
      6 N           7.0193   -1.5791   -0.3950 N.ar    1  UNL1       -0.1908
      7 S           6.1679   -2.9877   -0.6409 S.2     1  UNL1        0.1165
      8 N           4.6010   -2.4623   -0.4348 N.ar    1  UNL1       -0.1901
      9 C           4.6876   -1.1504   -0.1623 C.ar    1  UNL1        0.1092
     10 C           3.6603   -0.2381    0.0933 C.ar    1  UNL1        0.0302
     11 C           2.2530   -0.3623    0.1528 C.ar    1  UNL1        0.0535
     12 N           1.3113   -1.3264    0.0079 N.ar    1  UNL1       -0.3538
     13 C           0.0649   -0.7358    0.2095 C.ar    1  UNL1        0.0500
     14 C          -1.2319   -1.2779    0.1750 C.ar    1  UNL1       -0.0274
     15 C          -2.3507   -0.4430    0.4187 C.ar    1  UNL1        0.0195
     16 C          -3.7188   -0.9435    0.3888 C.ar    1  UNL1        0.0323
     17 S          -4.1586   -2.3863    1.2768 S.2     1  UNL1       -0.0922
     18 C          -5.8177   -2.3322    0.7798 C.ar    1  UNL1        0.0192
     19 C          -5.9678   -1.2577   -0.0140 C.ar    1  UNL1        0.1424
     20 O          -7.1180   -0.8570   -0.6200 O.2     1  UNL1       -0.4624
     21 C          -6.6525    0.2675   -1.2772 C.ar    1  UNL1        0.0932
     22 C          -5.2899    0.5250   -1.0794 C.ar    1  UNL1       -0.0150
     23 C          -4.8415   -0.5019   -0.2279 C.ar    1  UNL1        0.0350
     24 C          -2.0962    0.9343    0.6927 C.ar    1  UNL1        0.1088
     25 N          -2.9958    1.9078    0.9606 N.ar    1  UNL1       -0.1901
     26 S          -2.1400    3.3225    1.2146 S.2     1  UNL1        0.1165
     27 N          -0.5702    2.7819    0.9909 N.ar    1  UNL1       -0.1901
     28 C          -0.7527    1.4965    0.7296 C.ar    1  UNL1        0.1099
     29 C           0.3270    0.6051    0.4754 C.ar    1  UNL1        0.0319
     30 C           1.6882    0.8541    0.4445 C.ar    1  UNL1       -0.0079
     31 H           2.6732    2.3640    1.6343 H       1  UNL1        0.0362
     32 H           2.5650    2.7394   -0.1406 H       1  UNL1        0.0362
     33 H           5.4682    2.6598    0.5965 H       1  UNL1        0.0621
     34 H           7.3990    1.1176    0.1527 H       1  UNL1        0.0640
     35 H           1.4823   -2.3011   -0.2064 H       1  UNL1        0.1659
     36 H          -1.3733   -2.3332   -0.0481 H       1  UNL1        0.0645
     37 H          -6.5601   -3.0561    1.0813 H       1  UNL1        0.0731
     38 H          -7.4112    0.7854   -1.8492 H       1  UNL1        0.1030
     39 H          -4.7302    1.3496   -1.4967 H       1  UNL1        0.0655
@<TRIPOS>BOND
     1     1     2    1
     2     2     3   ar
     3     3     4   ar
     4     4     5   ar
     5     5     6   ar
     6     6     7   ar
     7     7     8   ar
     8     8     9   ar
     9     9    10   ar
    10    10    11    1
    11    11    12   ar
    12    12    13   ar
    13    13    14   ar
    14    14    15   ar
    15    15    16    1
    16    16    17   ar
    17    17    18   ar
    18    18    19   ar
    19    19    20   ar
    20    20    21   ar
    21    21    22   ar
    22    22    23   ar
    23    15    24   ar
    24    24    25   ar
    25    25    26   ar
    26    26    27   ar
    27    27    28   ar
    28    28    29   ar
    29    29    30   ar
    30    30     1    1
    31    10     2   ar
    32    30    11   ar
    33     9     5   ar
    34    29    13   ar
    35    23    16   ar
    36    28    24   ar
    37    23    19   ar
    38     1    31    1
    39     1    32    1
    40     3    33    1
    41     4    34    1
    42    12    35    1
    43    14    36    1
    44    18    37    1
    45    21    38    1
    46    22    39    1
