@<TRIPOS>MOLECULE
*****
 40 46 0 0 0
SMALL
GASTEIGER

@<TRIPOS>ATOM
      1 C          -3.6323   -0.9205    0.4562 C.3     1  UNL1        0.0023
      2 C          -4.6421    0.2187    0.2615 C.ar    1  UNL1       -0.0156
      3 C          -6.0207    0.1742    0.2660 C.ar    1  UNL1       -0.0547
      4 C          -6.7000    1.3799    0.0610 C.ar    1  UNL1       -0.0433
      5 C          -5.9719    2.5639   -0.1373 C.ar    1  UNL1        0.0283
      6 N          -4.6206    2.6474   -0.1485 N.ar    1  UNL1       -0.2532
      7 C          -4.0304    1.4689    0.0519 C.ar    1  UNL1        0.0908
      8 C          -2.6343    1.2300    0.0953 C.ar    1  UNL1        0.0698
      9 N          -1.4871    1.9421   -0.0209 N.ar    1  UNL1       -0.3527
     10 C          -0.4205    1.0594    0.1318 C.ar    1  UNL1        0.0485
     11 C           0.9851    1.2695    0.1016 C.ar    1  UNL1       -0.0288
     12 C           1.8870    0.1874    0.2830 C.ar    1  UNL1        0.0020
     13 C           3.3289    0.3253    0.2461 C.ar    1  UNL1        0.0293
     14 S           4.1429    1.4457    1.3063 S.2     1  UNL1       -0.0939
     15 C           5.7249    1.0442    0.7107 C.ar    1  UNL1        0.0002
     16 C           5.5785    0.1077   -0.2472 C.ar    1  UNL1        0.0542
     17 N           6.5689   -0.4792   -0.9790 N.ar    1  UNL1       -0.3602
     18 C           5.8307   -1.3350   -1.7949 C.ar    1  UNL1        0.0028
     19 C           4.4467   -1.2373   -1.5341 C.ar    1  UNL1       -0.0356
     20 C           4.2821   -0.2797   -0.4988 C.ar    1  UNL1        0.0144
     21 C           1.2419   -1.0388    0.4886 C.ar    1  UNL1        0.0288
     22 C           1.8041   -2.2739    0.7268 C.ar    1  UNL1        0.1000
     23 O           0.8266   -3.2290    0.8849 O.2     1  UNL1       -0.4698
     24 C          -0.3884   -2.6016    0.7596 C.ar    1  UNL1        0.1000
     25 C          -0.1399   -1.2875    0.5284 C.ar    1  UNL1        0.0299
     26 C          -1.0112   -0.1912    0.3390 C.ar    1  UNL1        0.0145
     27 C          -2.3880   -0.1031    0.3209 C.ar    1  UNL1       -0.0078
     28 H          -3.7221   -1.6651   -0.3384 H       1  UNL1        0.0363
     29 H          -3.7261   -1.3629    1.4509 H       1  UNL1        0.0363
     30 H          -6.5605   -0.7530    0.4215 H       1  UNL1        0.0621
     31 H          -7.7854    1.4062    0.0542 H       1  UNL1        0.0633
     32 H          -6.4903    3.5061   -0.2975 H       1  UNL1        0.0830
     33 H          -1.4208    2.9374   -0.1871 H       1  UNL1        0.1660
     34 H           1.3729    2.2708   -0.0736 H       1  UNL1        0.0645
     35 H           6.6231    1.5096    1.0904 H       1  UNL1        0.0714
     36 H           7.5666   -0.3153   -0.9253 H       1  UNL1        0.1653
     37 H           6.3534   -1.9549   -2.5122 H       1  UNL1        0.0807
     38 H           3.6723   -1.7965   -2.0431 H       1  UNL1        0.0639
     39 H           2.8168   -2.6420    0.8162 H       1  UNL1        0.1036
     40 H          -1.2609   -3.2278    0.8673 H       1  UNL1        0.1036
@<TRIPOS>BOND
     1     1     2    1
     2     2     3   ar
     3     3     4   ar
     4     4     5   ar
     5     5     6   ar
     6     6     7   ar
     7     7     8    1
     8     8     9   ar
     9     9    10   ar
    10    10    11   ar
    11    11    12   ar
    12    12    13    1
    13    13    14   ar
    14    14    15   ar
    15    15    16   ar
    16    16    17   ar
    17    17    18   ar
    18    18    19   ar
    19    19    20   ar
    20    12    21   ar
    21    21    22   ar
    22    22    23   ar
    23    23    24   ar
    24    24    25   ar
    25    25    26   ar
    26    26    27   ar
    27    27     1    1
    28     7     2   ar
    29    27     8   ar
    30    26    10   ar
    31    20    13   ar
    32    25    21   ar
    33    20    16   ar
    34     1    28    1
    35     1    29    1
    36     3    30    1
    37     4    31    1
    38     5    32    1
    39     9    33    1
    40    11    34    1
    41    15    35    1
    42    17    36    1
    43    18    37    1
    44    19    38    1
    45    22    39    1
    46    24    40    1
