@<TRIPOS>MOLECULE
*****
 38 42 0 0 0
SMALL
GASTEIGER

@<TRIPOS>ATOM
      1 C           3.5438   -0.2993   -2.5133 C.ar    1  UNL1       -0.0353
      2 C           2.1286   -0.3531   -2.5655 C.ar    1  UNL1       -0.0358
      3 C           1.6465   -0.1954   -1.2794 C.ar    1  UNL1        0.0476
      4 N           2.7481   -0.0891   -0.4602 N.ar    1  UNL1       -0.3537
      5 C           3.9121   -0.1324   -1.1925 C.ar    1  UNL1        0.0551
      6 C           5.2174   -0.0246   -0.6057 C.ar    1  UNL1        0.0549
      7 C           6.4471   -0.0698   -1.2391 C.ar    1  UNL1        0.0439
      8 N           7.5600    0.0613   -0.4274 N.ar    1  UNL1       -0.2550
      9 C           7.1651    0.2059    0.8169 C.ar    1  UNL1        0.0653
     10 S           5.4725    0.1932    1.0820 S.2     1  UNL1       -0.0740
     11 C           0.2878   -0.1974   -0.7794 C.ar    1  UNL1        0.0090
     12 C          -0.6975   -1.1348   -1.1630 C.ar    1  UNL1       -0.0513
     13 C          -2.0431   -1.1452   -0.6468 C.ar    1  UNL1       -0.0512
     14 C          -2.5625   -0.2196    0.3064 C.ar    1  UNL1        0.0111
     15 C          -3.9279   -0.2273    0.8260 C.ar    1  UNL1        0.0716
     16 C          -5.0275   -0.5165    0.0171 C.ar    1  UNL1       -0.0357
     17 C          -6.3043   -0.5259    0.5759 C.ar    1  UNL1       -0.0583
     18 C          -6.4565   -0.2506    1.9274 C.ar    1  UNL1       -0.0436
     19 C          -5.3203    0.0263    2.6652 C.ar    1  UNL1        0.0283
     20 N          -4.0721    0.0446    2.1472 N.ar    1  UNL1       -0.2550
     21 C          -1.5653    0.7023    0.6561 C.ar    1  UNL1        0.0296
     22 C          -1.6588    1.7731    1.5098 C.ar    1  UNL1        0.1000
     23 O          -0.4724    2.4504    1.5431 O.2     1  UNL1       -0.4698
     24 C           0.3903    1.8094    0.6998 C.ar    1  UNL1        0.1000
     25 C          -0.2259    0.7169    0.1435 C.ar    1  UNL1        0.0296
     26 H           4.2152   -0.3794   -3.3585 H       1  UNL1        0.0639
     27 H           1.5233   -0.4796   -3.4543 H       1  UNL1        0.0639
     28 H           2.7109   -0.0040    0.5467 H       1  UNL1        0.1659
     29 H           6.5950   -0.1982   -2.3044 H       1  UNL1        0.0842
     30 H           7.8647    0.3269    1.6336 H       1  UNL1        0.0907
     31 H          -0.4282   -1.9125   -1.8790 H       1  UNL1        0.0624
     32 H          -2.6969   -1.9408   -1.0088 H       1  UNL1        0.0624
     33 H          -4.9038   -0.7206   -1.0416 H       1  UNL1        0.0639
     34 H          -7.1708   -0.7447   -0.0415 H       1  UNL1        0.0619
     35 H          -7.4348   -0.2503    2.3943 H       1  UNL1        0.0633
     36 H          -5.3824    0.2481    3.7269 H       1  UNL1        0.0830
     37 H          -2.4438    2.1812    2.1313 H       1  UNL1        0.1036
     38 H           1.3663    2.2645    0.6112 H       1  UNL1        0.1036
@<TRIPOS>BOND
     1     1     2   ar
     2     2     3   ar
     3     3     4   ar
     4     4     5   ar
     5     5     6    1
     6     6     7   ar
     7     7     8   ar
     8     8     9   ar
     9     9    10   ar
    10     3    11    1
    11    11    12   ar
    12    12    13   ar
    13    13    14   ar
    14    14    15    1
    15    15    16   ar
    16    16    17   ar
    17    17    18   ar
    18    18    19   ar
    19    19    20   ar
    20    14    21   ar
    21    21    22   ar
    22    22    23   ar
    23    23    24   ar
    24    24    25   ar
    25     5     1   ar
    26    10     6   ar
    27    25    11   ar
    28    20    15   ar
    29    25    21   ar
    30     1    26    1
    31     2    27    1
    32     4    28    1
    33     7    29    1
    34     9    30    1
    35    12    31    1
    36    13    32    1
    37    16    33    1
    38    17    34    1
    39    18    35    1
    40    19    36    1
    41    22    37    1
    42    24    38    1
