@<TRIPOS>MOLECULE
*****
 42 47 0 0 0
SMALL
GASTEIGER

@<TRIPOS>ATOM
      1 C           1.4907   -0.9798   -2.1209 C.ar    1  UNL1       -0.0353
      2 C           2.9065   -0.9043   -2.1141 C.ar    1  UNL1       -0.0358
      3 C           3.3068   -0.3478   -0.9109 C.ar    1  UNL1        0.0469
      4 N           2.1520   -0.1067   -0.2000 N.ar    1  UNL1       -0.3537
      5 C           1.0372   -0.4788   -0.9170 C.ar    1  UNL1        0.0557
      6 C          -0.2924   -0.3194   -0.3849 C.ar    1  UNL1        0.0635
      7 S          -1.6849   -0.7912   -1.2833 S.2     1  UNL1       -0.0823
      8 C          -2.7746   -0.3047   -0.0500 C.ar    1  UNL1        0.0495
      9 C          -4.2041   -0.4489   -0.2647 C.ar    1  UNL1        0.0190
     10 C          -4.8655   -1.6957   -0.2567 C.ar    1  UNL1       -0.0513
     11 C          -6.2605   -1.8291   -0.4496 C.ar    1  UNL1       -0.0590
     12 C          -7.1131   -0.7322   -0.6658 C.ar    1  UNL1       -0.0335
     13 C          -6.5026    0.5459   -0.6867 C.ar    1  UNL1        0.1005
     14 N          -7.1387    1.7112   -0.8819 N.ar    1  UNL1       -0.1908
     15 S          -5.9760    2.8948   -0.8199 S.2     1  UNL1        0.1165
     16 N          -4.6148    1.9856   -0.5556 N.ar    1  UNL1       -0.1901
     17 C          -5.0125    0.7020   -0.4837 C.ar    1  UNL1        0.1081
     18 C          -2.0966    0.1930    1.0383 C.ar    1  UNL1        0.1046
     19 N          -2.7134    0.6259    2.1770 N.ar    1  UNL1       -0.2508
     20 C          -1.8054    1.0731    3.0835 C.ar    1  UNL1        0.0464
     21 C          -0.4186    1.0818    2.8972 C.ar    1  UNL1        0.0464
     22 N           0.2297    0.6435    1.7823 N.ar    1  UNL1       -0.2507
     23 C          -0.6642    0.1932    0.8444 C.ar    1  UNL1        0.1059
     24 C           4.6432   -0.0534   -0.3889 C.ar    1  UNL1       -0.0017
     25 C           5.7354   -0.8557   -0.7466 C.ar    1  UNL1       -0.0526
     26 C           7.0144   -0.5850   -0.2524 C.ar    1  UNL1       -0.0611
     27 C           7.2175    0.4949    0.6033 C.ar    1  UNL1       -0.0617
     28 C           6.1432    1.3048    0.9638 C.ar    1  UNL1       -0.0611
     29 C           4.8638    1.0326    0.4705 C.ar    1  UNL1       -0.0526
     30 H           0.8778   -1.3621   -2.9269 H       1  UNL1        0.0639
     31 H           3.5652   -1.2134   -2.9155 H       1  UNL1        0.0639
     32 H           2.1065    0.2776    0.7363 H       1  UNL1        0.1659
     33 H          -4.2819   -2.6014   -0.0866 H       1  UNL1        0.0624
     34 H          -6.6952   -2.8290   -0.4262 H       1  UNL1        0.0618
     35 H          -8.1803   -0.8501   -0.8106 H       1  UNL1        0.0640
     36 H          -2.2333    1.4437    4.0110 H       1  UNL1        0.0845
     37 H           0.2303    1.4598    3.6828 H       1  UNL1        0.0845
     38 H           5.5982   -1.7090   -1.4062 H       1  UNL1        0.0624
     39 H           7.8499   -1.2192   -0.5367 H       1  UNL1        0.0618
     40 H           8.2124    0.7070    0.9857 H       1  UNL1        0.0618
     41 H           6.3001    2.1533    1.6245 H       1  UNL1        0.0618
     42 H           4.0476    1.6932    0.7517 H       1  UNL1        0.0624
@<TRIPOS>BOND
     1     1     2   ar
     2     2     3   ar
     3     3     4   ar
     4     4     5   ar
     5     5     6    1
     6     6     7   ar
     7     7     8   ar
     8     8     9    1
     9     9    10   ar
    10    10    11   ar
    11    11    12   ar
    12    12    13   ar
    13    13    14   ar
    14    14    15   ar
    15    15    16   ar
    16    16    17   ar
    17     8    18   ar
    18    18    19   ar
    19    19    20   ar
    20    20    21   ar
    21    21    22   ar
    22    22    23   ar
    23     3    24    1
    24    24    25   ar
    25    25    26   ar
    26    26    27   ar
    27    27    28   ar
    28    28    29   ar
    29     5     1   ar
    30    23     6   ar
    31    29    24   ar
    32    17     9   ar
    33    23    18   ar
    34    17    13   ar
    35     1    30    1
    36     2    31    1
    37     4    32    1
    38    10    33    1
    39    11    34    1
    40    12    35    1
    41    20    36    1
    42    21    37    1
    43    25    38    1
    44    26    39    1
    45    27    40    1
    46    28    41    1
    47    29    42    1
