@<TRIPOS>MOLECULE
*****
 39 44 0 0 0
SMALL
GASTEIGER

@<TRIPOS>ATOM
      1 C          -2.1539    3.9637    0.8880 C.ar    1  UNL1       -0.0592
      2 C          -1.0149    3.2611    0.5067 C.ar    1  UNL1       -0.0519
      3 C          -1.0511    1.8711    0.2699 C.ar    1  UNL1        0.0101
      4 C           0.1730    1.1448   -0.0644 C.ar    1  UNL1        0.0736
      5 C           0.7510    0.2536    0.8404 C.ar    1  UNL1       -0.0117
      6 C           1.9239   -0.3684    0.4155 C.ar    1  UNL1        0.0510
      7 N           2.7263   -1.2893    1.0455 N.ar    1  UNL1       -0.3540
      8 C           3.7895   -1.6356    0.2458 C.ar    1  UNL1        0.0504
      9 C           4.8399   -2.5232    0.4690 C.ar    1  UNL1       -0.0196
     10 C           5.7504   -2.6260   -0.5717 C.ar    1  UNL1        0.0295
     11 N           5.6772   -1.9437   -1.7355 N.ar    1  UNL1       -0.2625
     12 C           4.6453   -1.0853   -1.9288 C.ar    1  UNL1        0.0373
     13 C           3.6699   -0.9084   -0.9390 C.ar    1  UNL1        0.0269
     14 C           2.4907   -0.1066   -0.8303 C.ar    1  UNL1        0.0270
     15 C           1.8534    0.8155   -1.6679 C.ar    1  UNL1        0.0380
     16 N           0.7108    1.4318   -1.2755 N.ar    1  UNL1       -0.2542
     17 C          -2.2960    1.1928    0.3887 C.ar    1  UNL1        0.0166
     18 C          -3.4136    1.9320    0.7909 C.ar    1  UNL1        0.0481
     19 C          -3.3729    3.3075    1.0491 C.ar    1  UNL1       -0.0377
     20 N          -4.4772    1.0642    0.8655 N.ar    1  UNL1       -0.3529
     21 C          -4.1055   -0.2036    0.4982 C.ar    1  UNL1        0.0658
     22 C          -4.8553   -1.3704    0.4178 C.ar    1  UNL1        0.0514
     23 N          -4.2613   -2.5089   -0.0010 N.ar    1  UNL1       -0.2612
     24 C          -2.9571   -2.4738   -0.3465 C.ar    1  UNL1        0.0283
     25 C          -2.1531   -1.3452   -0.2859 C.ar    1  UNL1       -0.0338
     26 C          -2.7511   -0.1582    0.1711 C.ar    1  UNL1        0.0109
     27 H          -2.0904    5.0348    1.0651 H       1  UNL1        0.0618
     28 H          -0.0726    3.7950    0.3928 H       1  UNL1        0.0624
     29 H           0.3082    0.0579    1.8097 H       1  UNL1        0.0660
     30 H           2.5573   -1.6617    1.9693 H       1  UNL1        0.1659
     31 H           4.9466   -3.0938    1.3821 H       1  UNL1        0.0653
     32 H           6.6047   -3.2938   -0.4904 H       1  UNL1        0.0830
     33 H           4.6295   -0.5610   -2.8775 H       1  UNL1        0.0836
     34 H           2.2268    1.0819   -2.6502 H       1  UNL1        0.0836
     35 H          -4.2599    3.8555    1.3518 H       1  UNL1        0.0638
     36 H          -5.4124    1.3326    1.1351 H       1  UNL1        0.1659
     37 H          -5.9072   -1.4276    0.6688 H       1  UNL1        0.0851
     38 H          -2.5510   -3.4196   -0.6956 H       1  UNL1        0.0830
     39 H          -1.1180   -1.3920   -0.6001 H       1  UNL1        0.0639
@<TRIPOS>BOND
     1     1     2   ar
     2     2     3   ar
     3     3     4    1
     4     4     5   ar
     5     5     6   ar
     6     6     7   ar
     7     7     8   ar
     8     8     9   ar
     9     9    10   ar
    10    10    11   ar
    11    11    12   ar
    12    12    13   ar
    13    13    14   ar
    14    14    15   ar
    15    15    16   ar
    16     3    17   ar
    17    17    18   ar
    18    18    19   ar
    19    18    20   ar
    20    20    21   ar
    21    21    22   ar
    22    22    23   ar
    23    23    24   ar
    24    24    25   ar
    25    25    26   ar
    26    19     1   ar
    27    26    21   ar
    28    16     4   ar
    29    26    17   ar
    30    14     6   ar
    31    13     8   ar
    32     1    27    1
    33     2    28    1
    34     5    29    1
    35     7    30    1
    36     9    31    1
    37    10    32    1
    38    12    33    1
    39    15    34    1
    40    19    35    1
    41    20    36    1
    42    22    37    1
    43    24    38    1
    44    25    39    1
