@<TRIPOS>MOLECULE
*****
 38 43 0 0 0
SMALL
GASTEIGER

@<TRIPOS>ATOM
      1 C          -3.0481    2.6108    2.4019 C.ar    1  UNL1       -0.0576
      2 C          -1.7813    2.3859    1.8604 C.ar    1  UNL1       -0.0518
      3 C          -1.5349    1.3203    0.9670 C.ar    1  UNL1        0.0118
      4 C          -0.1949    1.0669    0.4456 C.ar    1  UNL1        0.0736
      5 C           0.5485   -0.0344    0.8700 C.ar    1  UNL1       -0.0117
      6 C           1.8155   -0.1649    0.3034 C.ar    1  UNL1        0.0510
      7 N           2.7868   -1.1185    0.4947 N.ar    1  UNL1       -0.3540
      8 C           3.8888   -0.8529   -0.2831 C.ar    1  UNL1        0.0504
      9 C           5.0927   -1.5419   -0.4141 C.ar    1  UNL1       -0.0196
     10 C           5.9958   -0.9785   -1.3026 C.ar    1  UNL1        0.0295
     11 N           5.7812    0.1496   -2.0141 N.ar    1  UNL1       -0.2625
     12 C           4.6021    0.8034   -1.8680 C.ar    1  UNL1        0.0373
     13 C           3.6204    0.3164   -0.9953 C.ar    1  UNL1        0.0269
     14 C           2.3104    0.7519   -0.6223 C.ar    1  UNL1        0.0270
     15 C           1.5004    1.8354   -0.9804 C.ar    1  UNL1        0.0380
     16 N           0.2642    1.9818   -0.4419 N.ar    1  UNL1       -0.2542
     17 C          -2.6242    0.4929    0.5974 C.ar    1  UNL1        0.0387
     18 C          -3.8662    0.7500    1.1731 C.ar    1  UNL1        0.1389
     19 C          -4.1218    1.7829    2.0736 C.ar    1  UNL1       -0.0186
     20 O          -4.7966   -0.1405    0.7410 O.2     1  UNL1       -0.4368
     21 C          -4.1816   -0.9702   -0.1425 C.ar    1  UNL1        0.2284
     22 N          -4.8286   -1.9707   -0.7693 N.ar    1  UNL1       -0.2205
     23 C          -4.0433   -2.6586   -1.6243 C.ar    1  UNL1        0.0314
     24 C          -2.7006   -2.4077   -1.8706 C.ar    1  UNL1       -0.0428
     25 C          -2.0703   -1.3648   -1.1912 C.ar    1  UNL1       -0.0474
     26 C          -2.8395   -0.6165   -0.2812 C.ar    1  UNL1        0.0482
     27 H          -3.2002    3.4408    3.0886 H       1  UNL1        0.0619
     28 H          -0.9611    3.0487    2.1350 H       1  UNL1        0.0624
     29 H           0.1615   -0.7416    1.5940 H       1  UNL1        0.0660
     30 H           2.7033   -1.9069    1.1209 H       1  UNL1        0.1659
     31 H           5.3164   -2.4489    0.1320 H       1  UNL1        0.0653
     32 H           6.9636   -1.4445   -1.4721 H       1  UNL1        0.0830
     33 H           4.4773    1.7038   -2.4587 H       1  UNL1        0.0836
     34 H           1.8069    2.5971   -1.6884 H       1  UNL1        0.0836
     35 H          -5.1129    1.9372    2.4842 H       1  UNL1        0.0654
     36 H          -4.5505   -3.4673   -2.1466 H       1  UNL1        0.0831
     37 H          -2.1526   -3.0106   -2.5876 H       1  UNL1        0.0633
     38 H          -1.0268   -1.1355   -1.3801 H       1  UNL1        0.0626
@<TRIPOS>BOND
     1     1     2   ar
     2     2     3   ar
     3     3     4    1
     4     4     5   ar
     5     5     6   ar
     6     6     7   ar
     7     7     8   ar
     8     8     9   ar
     9     9    10   ar
    10    10    11   ar
    11    11    12   ar
    12    12    13   ar
    13    13    14   ar
    14    14    15   ar
    15    15    16   ar
    16     3    17   ar
    17    17    18   ar
    18    18    19   ar
    19    18    20   ar
    20    20    21   ar
    21    21    22   ar
    22    22    23   ar
    23    23    24   ar
    24    24    25   ar
    25    25    26   ar
    26    19     1   ar
    27    26    21   ar
    28    16     4   ar
    29    26    17   ar
    30    14     6   ar
    31    13     8   ar
    32     1    27    1
    33     2    28    1
    34     5    29    1
    35     7    30    1
    36     9    31    1
    37    10    32    1
    38    12    33    1
    39    15    34    1
    40    19    35    1
    41    23    36    1
    42    24    37    1
    43    25    38    1
