@<TRIPOS>MOLECULE
*****
 38 43 0 0 0
SMALL
GASTEIGER

@<TRIPOS>ATOM
      1 C          -2.5613   -4.0033    0.1738 C.ar    1  UNL1       -0.0601
      2 C          -1.3959   -3.2911   -0.0557 C.ar    1  UNL1       -0.0519
      3 C          -1.3949   -1.8814   -0.0844 C.ar    1  UNL1        0.0092
      4 C          -0.1325   -1.1700   -0.2742 C.ar    1  UNL1        0.0736
      5 C           0.6089   -0.7226    0.8192 C.ar    1  UNL1       -0.0117
      6 C           1.7991   -0.0646    0.5130 C.ar    1  UNL1        0.0510
      7 N           2.7465    0.4982    1.3346 N.ar    1  UNL1       -0.3540
      8 C           3.7665    1.0484    0.5953 C.ar    1  UNL1        0.0504
      9 C           4.9204    1.7162    0.9997 C.ar    1  UNL1       -0.0196
     10 C           5.7423    2.1423   -0.0325 C.ar    1  UNL1        0.0295
     11 N           5.4958    1.9533   -1.3472 N.ar    1  UNL1       -0.2625
     12 C           4.3666    1.2991   -1.7158 C.ar    1  UNL1        0.0373
     13 C           3.4680    0.8282   -0.7497 C.ar    1  UNL1        0.0269
     14 C           2.2244    0.1241   -0.8010 C.ar    1  UNL1        0.0270
     15 C           1.4218   -0.3698   -1.8357 C.ar    1  UNL1        0.0380
     16 N           0.2569   -1.0081   -1.5618 N.ar    1  UNL1       -0.2542
     17 C          -2.6194   -1.1611    0.0971 C.ar    1  UNL1        0.0076
     18 C          -3.7736   -1.9180    0.3457 C.ar    1  UNL1        0.0226
     19 C          -3.7583   -3.3278    0.3866 C.ar    1  UNL1       -0.0473
     20 S          -5.1571   -0.9288    0.5929 S.2     1  UNL1       -0.0687
     21 C          -4.2787    0.4956    0.3417 C.ar    1  UNL1        0.1093
     22 N          -4.9024    1.6916    0.4123 N.ar    1  UNL1       -0.2478
     23 C          -4.1062    2.7478    0.1673 C.ar    1  UNL1        0.0289
     24 C          -2.7609    2.6770   -0.1337 C.ar    1  UNL1       -0.0429
     25 C          -2.1577    1.4225   -0.1875 C.ar    1  UNL1       -0.0500
     26 C          -2.9349    0.2656    0.0676 C.ar    1  UNL1        0.0160
     27 H          -2.5416   -5.0902    0.1909 H       1  UNL1        0.0618
     28 H          -0.4641   -3.8310   -0.2185 H       1  UNL1        0.0624
     29 H           0.2738   -0.8744    1.8382 H       1  UNL1        0.0660
     30 H           2.6997    0.5074    2.3438 H       1  UNL1        0.1659
     31 H           5.1664    1.8939    2.0384 H       1  UNL1        0.0653
     32 H           6.6664    2.6730    0.1841 H       1  UNL1        0.0830
     33 H           4.2134    1.1710   -2.7813 H       1  UNL1        0.0836
     34 H           1.6776   -0.2708   -2.8846 H       1  UNL1        0.0836
     35 H          -4.6737   -3.8836    0.5743 H       1  UNL1        0.0629
     36 H          -4.6067    3.7121    0.2163 H       1  UNL1        0.0830
     37 H          -2.1888    3.5771   -0.3306 H       1  UNL1        0.0633
     38 H          -1.1057    1.3522   -0.4437 H       1  UNL1        0.0625
@<TRIPOS>BOND
     1     1     2   ar
     2     2     3   ar
     3     3     4    1
     4     4     5   ar
     5     5     6   ar
     6     6     7   ar
     7     7     8   ar
     8     8     9   ar
     9     9    10   ar
    10    10    11   ar
    11    11    12   ar
    12    12    13   ar
    13    13    14   ar
    14    14    15   ar
    15    15    16   ar
    16     3    17   ar
    17    17    18   ar
    18    18    19   ar
    19    18    20   ar
    20    20    21   ar
    21    21    22   ar
    22    22    23   ar
    23    23    24   ar
    24    24    25   ar
    25    25    26   ar
    26    19     1   ar
    27    26    21   ar
    28    16     4   ar
    29    26    17   ar
    30    14     6   ar
    31    13     8   ar
    32     1    27    1
    33     2    28    1
    34     5    29    1
    35     7    30    1
    36     9    31    1
    37    10    32    1
    38    12    33    1
    39    15    34    1
    40    19    35    1
    41    23    36    1
    42    24    37    1
    43    25    38    1
