@<TRIPOS>MOLECULE
*****
 34 38 0 0 0
SMALL
GASTEIGER

@<TRIPOS>ATOM
      1 C          -1.2994   -3.6528    0.1620 C.ar    1  UNL1       -0.0592
      2 C          -0.1401   -2.8907    0.2657 C.ar    1  UNL1       -0.0519
      3 C          -0.1948   -1.4898    0.1963 C.ar    1  UNL1        0.0080
      4 C           1.0280   -0.7072    0.2493 C.ar    1  UNL1        0.0482
      5 C           1.9342   -0.5170    1.2749 C.ar    1  UNL1       -0.0272
      6 C           2.9757    0.3264    0.7975 C.ar    1  UNL1        0.0183
      7 C           4.1346    0.8704    1.3636 C.ar    1  UNL1        0.0367
      8 N           4.9532    1.6640    0.6285 N.ar    1  UNL1       -0.2625
      9 C           4.6315    1.9169   -0.6597 C.ar    1  UNL1        0.0295
     10 C           3.5106    1.4263   -1.3130 C.ar    1  UNL1       -0.0196
     11 C           2.6863    0.6164   -0.5354 C.ar    1  UNL1        0.0498
     12 N           1.5149   -0.0326   -0.8470 N.ar    1  UNL1       -0.3540
     13 C          -1.4461   -0.8379    0.0450 C.ar    1  UNL1        0.0166
     14 C          -2.5843   -1.6433   -0.0702 C.ar    1  UNL1        0.0481
     15 C          -2.5420   -3.0428   -0.0166 C.ar    1  UNL1       -0.0377
     16 N          -3.6643   -0.8091   -0.2346 N.ar    1  UNL1       -0.3529
     17 C          -3.2788    0.5069   -0.2041 C.ar    1  UNL1        0.0658
     18 C          -4.0362    1.6658   -0.3194 C.ar    1  UNL1        0.0514
     19 N          -3.4227    2.8660   -0.2346 N.ar    1  UNL1       -0.2612
     20 C          -2.0900    2.9034   -0.0253 C.ar    1  UNL1        0.0283
     21 C          -1.2772    1.7859    0.0953 C.ar    1  UNL1       -0.0338
     22 C          -1.8980    0.5295   -0.0113 C.ar    1  UNL1        0.0109
     23 H          -1.2358   -4.7375    0.2133 H       1  UNL1        0.0618
     24 H           0.8182   -3.3909    0.3884 H       1  UNL1        0.0624
     25 H           1.8483   -0.9318    2.2712 H       1  UNL1        0.0645
     26 H           4.4297    0.6923    2.3911 H       1  UNL1        0.0836
     27 H           5.3350    2.5586   -1.1845 H       1  UNL1        0.0830
     28 H           3.3009    1.6594   -2.3483 H       1  UNL1        0.0653
     29 H           1.0607   -0.0085   -1.7497 H       1  UNL1        0.1659
     30 H          -3.4437   -3.6416   -0.1038 H       1  UNL1        0.0638
     31 H          -4.6166   -1.1255   -0.3462 H       1  UNL1        0.1659
     32 H          -5.1086    1.6709   -0.4712 H       1  UNL1        0.0851
     33 H          -1.6667    3.9016    0.0515 H       1  UNL1        0.0830
     34 H          -0.2165    1.8980    0.2813 H       1  UNL1        0.0639
@<TRIPOS>BOND
     1     1     2   ar
     2     2     3   ar
     3     3     4    1
     4     4     5   ar
     5     5     6   ar
     6     6     7   ar
     7     7     8   ar
     8     8     9   ar
     9     9    10   ar
    10    10    11   ar
    11    11    12   ar
    12     3    13   ar
    13    13    14   ar
    14    14    15   ar
    15    14    16   ar
    16    16    17   ar
    17    17    18   ar
    18    18    19   ar
    19    19    20   ar
    20    20    21   ar
    21    21    22   ar
    22    15     1   ar
    23    22    17   ar
    24    12     4   ar
    25    22    13   ar
    26    11     6   ar
    27     1    23    1
    28     2    24    1
    29     5    25    1
    30     7    26    1
    31     9    27    1
    32    10    28    1
    33    12    29    1
    34    15    30    1
    35    16    31    1
    36    18    32    1
    37    20    33    1
    38    21    34    1
