@<TRIPOS>MOLECULE
*****
 33 37 0 0 0
SMALL
GASTEIGER

@<TRIPOS>ATOM
      1 C          -1.5889   -3.2930   -1.6361 C.ar    1  UNL1       -0.0576
      2 C          -0.4240   -2.5290   -1.5502 C.ar    1  UNL1       -0.0518
      3 C          -0.4038   -1.3228   -0.8294 C.ar    1  UNL1        0.0097
      4 C           0.8169   -0.5475   -0.7075 C.ar    1  UNL1        0.0482
      5 C           1.5242    0.1712   -1.6521 C.ar    1  UNL1       -0.0272
      6 C           2.6607    0.7438   -1.0161 C.ar    1  UNL1        0.0183
      7 C           3.7115    1.5657   -1.4397 C.ar    1  UNL1        0.0367
      8 N           4.6745    1.9564   -0.5678 N.ar    1  UNL1       -0.2625
      9 C           4.6039    1.5343    0.7142 C.ar    1  UNL1        0.0295
     10 C           3.6078    0.7194    1.2315 C.ar    1  UNL1       -0.0196
     11 C           2.6298    0.3359    0.3169 C.ar    1  UNL1        0.0498
     12 N           1.5163   -0.4553    0.4742 N.ar    1  UNL1       -0.3540
     13 C          -1.5866   -0.8682   -0.2035 C.ar    1  UNL1        0.0386
     14 C          -2.7192   -1.6719   -0.3116 C.ar    1  UNL1        0.1389
     15 C          -2.7662   -2.8796   -1.0078 C.ar    1  UNL1       -0.0186
     16 O          -3.7695   -1.1228    0.3518 O.2     1  UNL1       -0.4368
     17 C          -3.3417    0.0545    0.8804 C.ar    1  UNL1        0.2284
     18 N          -4.1447    0.8606    1.5996 N.ar    1  UNL1       -0.2205
     19 C          -3.5324    1.9894    2.0144 C.ar    1  UNL1        0.0314
     20 C          -2.2133    2.3360    1.7570 C.ar    1  UNL1       -0.0428
     21 C          -1.4169    1.4661    1.0118 C.ar    1  UNL1       -0.0474
     22 C          -2.0013    0.2693    0.5582 C.ar    1  UNL1        0.0482
     23 H          -1.5805   -4.2259   -2.1962 H       1  UNL1        0.0619
     24 H           0.4810   -2.8817   -2.0417 H       1  UNL1        0.0624
     25 H           1.2449    0.2855   -2.6920 H       1  UNL1        0.0645
     26 H           3.8079    1.9246   -2.4578 H       1  UNL1        0.0836
     27 H           5.4120    1.8852    1.3516 H       1  UNL1        0.0830
     28 H           3.6006    0.4091    2.2679 H       1  UNL1        0.0653
     29 H           1.2423   -0.9014    1.3390 H       1  UNL1        0.1659
     30 H          -3.6794   -3.4614   -1.0602 H       1  UNL1        0.0654
     31 H          -4.1674    2.6571    2.5933 H       1  UNL1        0.0831
     32 H          -1.8107    3.2741    2.1259 H       1  UNL1        0.0633
     33 H          -0.3878    1.7222    0.7821 H       1  UNL1        0.0626
@<TRIPOS>BOND
     1     1     2   ar
     2     2     3   ar
     3     3     4    1
     4     4     5   ar
     5     5     6   ar
     6     6     7   ar
     7     7     8   ar
     8     8     9   ar
     9     9    10   ar
    10    10    11   ar
    11    11    12   ar
    12     3    13   ar
    13    13    14   ar
    14    14    15   ar
    15    14    16   ar
    16    16    17   ar
    17    17    18   ar
    18    18    19   ar
    19    19    20   ar
    20    20    21   ar
    21    21    22   ar
    22    15     1   ar
    23    22    17   ar
    24    12     4   ar
    25    22    13   ar
    26    11     6   ar
    27     1    23    1
    28     2    24    1
    29     5    25    1
    30     7    26    1
    31     9    27    1
    32    10    28    1
    33    12    29    1
    34    15    30    1
    35    19    31    1
    36    20    32    1
    37    21    33    1
