@<TRIPOS>MOLECULE
*****
 33 37 0 0 0
SMALL
GASTEIGER

@<TRIPOS>ATOM
      1 C           1.1933    3.8680    0.2472 C.ar    1  UNL1       -0.0601
      2 C           0.1166    3.0124    0.0883 C.ar    1  UNL1       -0.0520
      3 C           0.3121    1.6231    0.0327 C.ar    1  UNL1        0.0072
      4 C          -0.8486    0.7571   -0.0872 C.ar    1  UNL1        0.0481
      5 C          -1.6416    0.4610   -1.1795 C.ar    1  UNL1       -0.0272
      6 C          -2.6696   -0.4256   -0.7540 C.ar    1  UNL1        0.0183
      7 C          -3.7352   -1.0701   -1.3930 C.ar    1  UNL1        0.0367
      8 N          -4.5677   -1.8816   -0.6942 N.ar    1  UNL1       -0.2625
      9 C          -4.3537   -2.0520    0.6294 C.ar    1  UNL1        0.0295
     10 C          -3.3312   -1.4582    1.3546 C.ar    1  UNL1       -0.0196
     11 C          -2.4886   -0.6333    0.6132 C.ar    1  UNL1        0.0498
     12 N          -1.3934    0.1054    0.9957 N.ar    1  UNL1       -0.3540
     13 C           1.6210    1.0563    0.1171 C.ar    1  UNL1        0.0075
     14 C           2.6814    1.9582    0.2936 C.ar    1  UNL1        0.0226
     15 C           2.4823    3.3541    0.3589 C.ar    1  UNL1       -0.0473
     16 S           4.1972    1.1598    0.4218 S.2     1  UNL1       -0.0687
     17 C           3.4970   -0.3667    0.2141 C.ar    1  UNL1        0.1093
     18 N           4.2774   -1.4689    0.2189 N.ar    1  UNL1       -0.2478
     19 C           3.6129   -2.6214    0.0211 C.ar    1  UNL1        0.0289
     20 C           2.2511   -2.7294   -0.1756 C.ar    1  UNL1       -0.0429
     21 C           1.4844   -1.5662   -0.1669 C.ar    1  UNL1       -0.0500
     22 C           2.1174   -0.3162    0.0446 C.ar    1  UNL1        0.0160
     23 H           1.0335    4.9427    0.2915 H       1  UNL1        0.0618
     24 H          -0.8879    3.4247    0.0137 H       1  UNL1        0.0624
     25 H          -1.4902    0.8355   -2.1841 H       1  UNL1        0.0645
     26 H          -3.9444   -0.9596   -2.4507 H       1  UNL1        0.0836
     27 H          -5.0629   -2.7131    1.1215 H       1  UNL1        0.0830
     28 H          -3.2063   -1.6280    2.4157 H       1  UNL1        0.0653
     29 H          -1.0288    0.1544    1.9372 H       1  UNL1        0.1659
     30 H           3.3279    4.0249    0.4916 H       1  UNL1        0.0629
     31 H           4.2393   -3.5105    0.0197 H       1  UNL1        0.0830
     32 H           1.7896   -3.6974   -0.3387 H       1  UNL1        0.0633
     33 H           0.4158   -1.6394   -0.3379 H       1  UNL1        0.0625
@<TRIPOS>BOND
     1     1     2   ar
     2     2     3   ar
     3     3     4    1
     4     4     5   ar
     5     5     6   ar
     6     6     7   ar
     7     7     8   ar
     8     8     9   ar
     9     9    10   ar
    10    10    11   ar
    11    11    12   ar
    12     3    13   ar
    13    13    14   ar
    14    14    15   ar
    15    14    16   ar
    16    16    17   ar
    17    17    18   ar
    18    18    19   ar
    19    19    20   ar
    20    20    21   ar
    21    21    22   ar
    22    15     1   ar
    23    22    17   ar
    24    12     4   ar
    25    22    13   ar
    26    11     6   ar
    27     1    23    1
    28     2    24    1
    29     5    25    1
    30     7    26    1
    31     9    27    1
    32    10    28    1
    33    12    29    1
    34    15    30    1
    35    19    31    1
    36    20    32    1
    37    21    33    1
