@<TRIPOS>MOLECULE
*****
 41 47 0 0 0
SMALL
GASTEIGER

@<TRIPOS>ATOM
      1 SI         -2.9626   -3.2881   -1.9084 Si      1  UNL1        0.0000
      2 C          -1.2498   -2.7945   -1.4067 C.2     1  UNL1        0.0000
      3 C          -1.2318   -1.5907   -0.7970 C.ar    1  UNL1        0.0000
      4 C          -0.0241   -0.9575   -0.2940 C.ar    1  UNL1        0.0000
      5 C           1.3468   -1.4882   -0.3612 C.2     1  UNL1        0.0000
      6 C           2.3064   -0.7091    0.1718 C.2     1  UNL1        0.0000
      7 SI          1.5743    0.8502    0.8660 Si      1  UNL1        0.0000
      8 C          -0.1332    0.2552    0.3095 C.ar    1  UNL1        0.0000
      9 C          -1.4133    0.9878    0.4901 C.ar    1  UNL1        0.0000
     10 C          -1.4384    2.2315    1.1250 C.ar    1  UNL1        0.0000
     11 C          -2.6284    2.9319    1.2964 C.ar    1  UNL1        0.0000
     12 C          -3.8498    2.4073    0.8308 C.ar    1  UNL1        0.0000
     13 C          -5.1587    2.9946    0.9218 C.ar    1  UNL1        0.0000
     14 C          -6.1320    2.2125    0.3620 C.ar    1  UNL1        0.0000
     15 S          -5.4882    0.7808   -0.2714 S.2     1  UNL1        0.0000
     16 C          -3.8527    1.1543    0.1884 C.ar    1  UNL1        0.0000
     17 C          -2.6381    0.4154    0.0069 C.ar    1  UNL1        0.0000
     18 C          -2.5634   -0.9272   -0.6607 C.ar    1  UNL1        0.0000
     19 C          -3.5605   -1.6757   -1.1826 C.2     1  UNL1        0.0000
     20 C           3.6801   -1.0285    0.2222 C.ar    1  UNL1        0.0000
     21 S           4.2273   -2.5044    0.9639 S.2     1  UNL1        0.0000
     22 C           5.8894   -2.1703    0.6731 C.ar    1  UNL1        0.0000
     23 C           6.0275   -0.9791    0.0245 C.ar    1  UNL1        0.0000
     24 S           7.4996   -0.1150   -0.5488 S.2     1  UNL1        0.0000
     25 C           6.3713    1.0955   -1.1408 C.ar    1  UNL1        0.0000
     26 C           5.0139    0.8443   -0.9079 C.ar    1  UNL1        0.0000
     27 C           4.7925   -0.3752   -0.2100 C.ar    1  UNL1        0.0000
     28 H          -3.4615   -4.4679   -1.1614 H       1  UNL1        0.0000
     29 H          -3.1336   -3.3470   -3.3802 H       1  UNL1        0.0000
     30 H          -0.4136   -3.4437   -1.6075 H       1  UNL1        0.0000
     31 H           1.5449   -2.4484   -0.8213 H       1  UNL1        0.0000
     32 H           1.6723    0.9553    2.3449 H       1  UNL1        0.0000
     33 H           1.9976    2.0746    0.1354 H       1  UNL1        0.0000
     34 H          -0.5395    2.7030    1.5102 H       1  UNL1        0.0000
     35 H          -2.6112    3.8983    1.7959 H       1  UNL1        0.0000
     36 H          -5.3632    3.9537    1.3818 H       1  UNL1        0.0000
     37 H          -7.1916    2.4179    0.2962 H       1  UNL1        0.0000
     38 H          -4.6138   -1.4839   -1.2368 H       1  UNL1        0.0000
     39 H           6.6785   -2.8439    0.9773 H       1  UNL1        0.0000
     40 H           6.7919    1.9522   -1.6498 H       1  UNL1        0.0000
     41 H           4.2385    1.5216   -1.2441 H       1  UNL1        0.0000
@<TRIPOS>BOND
     1     1     2    1
     2     2     3    2
     3     3     4   ar
     4     4     5    1
     5     5     6    2
     6     6     7    1
     7     7     8    1
     8     8     9   ar
     9     9    10   ar
    10    10    11   ar
    11    11    12   ar
    12    12    13   ar
    13    13    14   ar
    14    14    15   ar
    15    15    16   ar
    16    16    17   ar
    17    17    18   ar
    18    18    19    2
    19     6    20    1
    20    20    21   ar
    21    21    22   ar
    22    22    23   ar
    23    23    24   ar
    24    24    25   ar
    25    25    26   ar
    26    26    27   ar
    27    19     1    1
    28    27    20   ar
    29    18     3   ar
    30    27    23   ar
    31     8     4   ar
    32    17     9   ar
    33    16    12   ar
    34     1    28    1
    35     1    29    1
    36     2    30    1
    37     5    31    1
    38     7    32    1
    39     7    33    1
    40    10    34    1
    41    11    35    1
    42    13    36    1
    43    14    37    1
    44    19    38    1
    45    22    39    1
    46    25    40    1
    47    26    41    1
