@<TRIPOS>MOLECULE
*****
 39 43 0 0 0
SMALL
GASTEIGER

@<TRIPOS>ATOM
      1 C          -3.1567   -3.2678   -0.3765 C.ar    1  UNL1       -0.0592
      2 C          -1.8329   -2.8472   -0.2911 C.ar    1  UNL1       -0.0533
      3 C          -1.5005   -1.4786   -0.2553 C.ar    1  UNL1       -0.0081
      4 C          -0.1049   -1.0541   -0.1697 C.ar    1  UNL1       -0.0172
      5 C           0.6551   -0.8519   -1.3275 C.ar    1  UNL1       -0.0534
      6 C           1.9948   -0.4482   -1.2475 C.ar    1  UNL1       -0.0519
      7 C           2.6221   -0.2311   -0.0075 C.ar    1  UNL1        0.0019
      8 C           4.0307    0.2008    0.1014 C.ar    1  UNL1        0.0890
      9 C           4.6889    0.9537   -0.8726 C.ar    1  UNL1        0.0535
     10 N           5.9852    1.3486   -0.7732 N.ar    1  UNL1       -0.2596
     11 C           6.6151    0.9646    0.3562 C.ar    1  UNL1        0.0457
     12 C           5.9810    0.2268    1.3383 C.ar    1  UNL1        0.0464
     13 N           4.6892   -0.1641    1.2355 N.ar    1  UNL1       -0.2520
     14 C           1.8493   -0.4528    1.1473 C.ar    1  UNL1       -0.0519
     15 C           0.5107   -0.8561    1.0705 C.ar    1  UNL1       -0.0534
     16 C          -2.5472   -0.5178   -0.3068 C.ar    1  UNL1        0.0152
     17 C          -3.8636   -0.9817   -0.3935 C.ar    1  UNL1        0.0481
     18 C          -4.1972   -2.3410   -0.4298 C.ar    1  UNL1       -0.0377
     19 N          -4.6862    0.1192   -0.4314 N.ar    1  UNL1       -0.3529
     20 C          -3.9587    1.2805   -0.3725 C.ar    1  UNL1        0.0658
     21 C          -4.3785    2.6046   -0.3828 C.ar    1  UNL1        0.0514
     22 N          -3.4569    3.5897   -0.3122 N.ar    1  UNL1       -0.2612
     23 C          -2.1513    3.2557   -0.2319 C.ar    1  UNL1        0.0283
     24 C          -1.6666    1.9562   -0.2178 C.ar    1  UNL1       -0.0338
     25 C          -2.6142    0.9214   -0.2922 C.ar    1  UNL1        0.0109
     26 H          -3.3821   -4.3315   -0.4018 H       1  UNL1        0.0618
     27 H          -1.0407   -3.5929   -0.2508 H       1  UNL1        0.0624
     28 H           0.2046   -1.0106   -2.3059 H       1  UNL1        0.0624
     29 H           2.5415   -0.3273   -2.1800 H       1  UNL1        0.0624
     30 H           4.1887    1.2855   -1.7756 H       1  UNL1        0.0851
     31 H           7.6506    1.2693    0.4536 H       1  UNL1        0.0845
     32 H           6.4968   -0.0740    2.2429 H       1  UNL1        0.0845
     33 H           2.2929   -0.3086    2.1321 H       1  UNL1        0.0624
     34 H          -0.0503   -1.0126    1.9899 H       1  UNL1        0.0624
     35 H          -5.2292   -2.6712   -0.4966 H       1  UNL1        0.0638
     36 H          -5.6929    0.0755   -0.4936 H       1  UNL1        0.1659
     37 H          -5.4169    2.9058   -0.4446 H       1  UNL1        0.0851
     38 H          -1.4666    4.0978   -0.1756 H       1  UNL1        0.0830
     39 H          -0.6031    1.7657   -0.1501 H       1  UNL1        0.0639
@<TRIPOS>BOND
     1     1     2   ar
     2     2     3   ar
     3     3     4    1
     4     4     5   ar
     5     5     6   ar
     6     6     7   ar
     7     7     8    1
     8     8     9   ar
     9     9    10   ar
    10    10    11   ar
    11    11    12   ar
    12    12    13   ar
    13     7    14   ar
    14    14    15   ar
    15     3    16   ar
    16    16    17   ar
    17    17    18   ar
    18    17    19   ar
    19    19    20   ar
    20    20    21   ar
    21    21    22   ar
    22    22    23   ar
    23    23    24   ar
    24    24    25   ar
    25    18     1   ar
    26    25    20   ar
    27    15     4   ar
    28    25    16   ar
    29    13     8   ar
    30     1    26    1
    31     2    27    1
    32     5    28    1
    33     6    29    1
    34     9    30    1
    35    11    31    1
    36    12    32    1
    37    14    33    1
    38    15    34    1
    39    18    35    1
    40    19    36    1
    41    21    37    1
    42    23    38    1
    43    24    39    1
