@<TRIPOS>MOLECULE
*****
 38 42 0 0 0
SMALL
GASTEIGER

@<TRIPOS>ATOM
      1 C          -3.0762   -3.2656    1.3339 C.ar    1  UNL1       -0.0577
      2 C          -1.7867   -2.8334    1.0177 C.ar    1  UNL1       -0.0532
      3 C          -1.5347   -1.5107    0.5971 C.ar    1  UNL1       -0.0065
      4 C          -0.1844   -1.0643    0.2672 C.ar    1  UNL1       -0.0171
      5 C           0.6219   -0.4454    1.2278 C.ar    1  UNL1       -0.0534
      6 C           1.9154   -0.0169    0.9059 C.ar    1  UNL1       -0.0519
      7 C           2.4519   -0.1877   -0.3838 C.ar    1  UNL1        0.0019
      8 C           3.8179    0.2794   -0.6982 C.ar    1  UNL1        0.0890
      9 C           4.2344    0.6581   -1.9756 C.ar    1  UNL1        0.0535
     10 N           5.4913    1.0859   -2.2639 N.ar    1  UNL1       -0.2596
     11 C           6.3363    1.1286   -1.2131 C.ar    1  UNL1        0.0457
     12 C           5.9439    0.7671    0.0619 C.ar    1  UNL1        0.0464
     13 N           4.6899    0.3431    0.3451 N.ar    1  UNL1       -0.2520
     14 C           1.6353   -0.8245   -1.3354 C.ar    1  UNL1       -0.0519
     15 C           0.3399   -1.2544   -1.0164 C.ar    1  UNL1       -0.0534
     16 C          -2.6294   -0.6172    0.4988 C.ar    1  UNL1        0.0372
     17 C          -3.8962   -1.0949    0.8244 C.ar    1  UNL1        0.1388
     18 C          -4.1650   -2.3972    1.2426 C.ar    1  UNL1       -0.0186
     19 O          -4.8344   -0.1231    0.6796 O.2     1  UNL1       -0.4368
     20 C          -4.1918    0.9983    0.2576 C.ar    1  UNL1        0.2284
     21 N          -4.8350    2.1557    0.0144 N.ar    1  UNL1       -0.2205
     22 C          -4.0128    3.1445   -0.3956 C.ar    1  UNL1        0.0314
     23 C          -2.6395    3.0373   -0.5679 C.ar    1  UNL1       -0.0428
     24 C          -2.0169    1.8171   -0.3044 C.ar    1  UNL1       -0.0474
     25 C          -2.8254    0.7502    0.1278 C.ar    1  UNL1        0.0482
     26 H          -3.2356   -4.2923    1.6566 H       1  UNL1        0.0619
     27 H          -0.9585   -3.5361    1.1015 H       1  UNL1        0.0624
     28 H           0.2494   -0.2905    2.2387 H       1  UNL1        0.0624
     29 H           2.5132    0.4603    1.6822 H       1  UNL1        0.0624
     30 H           3.5611    0.6464   -2.8254 H       1  UNL1        0.0851
     31 H           7.3447    1.4655   -1.4236 H       1  UNL1        0.0845
     32 H           6.6310    0.8077    0.8993 H       1  UNL1        0.0845
     33 H           1.9974   -1.0192   -2.3425 H       1  UNL1        0.0624
     34 H          -0.2598   -1.7446   -1.7816 H       1  UNL1        0.0624
     35 H          -5.1735   -2.7124    1.4835 H       1  UNL1        0.0654
     36 H          -4.5138    4.0893   -0.5965 H       1  UNL1        0.0831
     37 H          -2.0602    3.8918   -0.9024 H       1  UNL1        0.0633
     38 H          -0.9451    1.7039   -0.4300 H       1  UNL1        0.0626
@<TRIPOS>BOND
     1     1     2   ar
     2     2     3   ar
     3     3     4    1
     4     4     5   ar
     5     5     6   ar
     6     6     7   ar
     7     7     8    1
     8     8     9   ar
     9     9    10   ar
    10    10    11   ar
    11    11    12   ar
    12    12    13   ar
    13     7    14   ar
    14    14    15   ar
    15     3    16   ar
    16    16    17   ar
    17    17    18   ar
    18    17    19   ar
    19    19    20   ar
    20    20    21   ar
    21    21    22   ar
    22    22    23   ar
    23    23    24   ar
    24    24    25   ar
    25    18     1   ar
    26    25    20   ar
    27    15     4   ar
    28    25    16   ar
    29    13     8   ar
    30     1    26    1
    31     2    27    1
    32     5    28    1
    33     6    29    1
    34     9    30    1
    35    11    31    1
    36    12    32    1
    37    14    33    1
    38    15    34    1
    39    18    35    1
    40    22    36    1
    41    23    37    1
    42    24    38    1
