@<TRIPOS>MOLECULE
*****
 38 42 0 0 0
SMALL
GASTEIGER

@<TRIPOS>ATOM
      1 C          -3.1583   -2.4377    2.5452 C.ar    1  UNL1       -0.0601
      2 C          -1.8812   -2.1312    2.1067 C.ar    1  UNL1       -0.0534
      3 C          -1.6576   -1.1005    1.1711 C.ar    1  UNL1       -0.0090
      4 C          -0.2892   -0.8199    0.7363 C.ar    1  UNL1       -0.0172
      5 C           0.5102    0.0965    1.4280 C.ar    1  UNL1       -0.0534
      6 C           1.8236    0.3518    1.0155 C.ar    1  UNL1       -0.0519
      7 C           2.3887   -0.2967   -0.0984 C.ar    1  UNL1        0.0019
      8 C           3.7754   -0.0036   -0.5158 C.ar    1  UNL1        0.0890
      9 C           4.2360   -0.1355   -1.8270 C.ar    1  UNL1        0.0535
     10 N           5.5118    0.1329   -2.2095 N.ar    1  UNL1       -0.2596
     11 C           6.3297    0.5502   -1.2211 C.ar    1  UNL1        0.0457
     12 C           5.8937    0.6967    0.0823 C.ar    1  UNL1        0.0464
     13 N           4.6211    0.4298    0.4587 N.ar    1  UNL1       -0.2520
     14 C           1.5799   -1.2292   -0.7727 C.ar    1  UNL1       -0.0519
     15 C           0.2647   -1.4870   -0.3630 C.ar    1  UNL1       -0.0534
     16 C          -2.7629   -0.3468    0.6574 C.ar    1  UNL1        0.0061
     17 C          -4.0399   -0.6902    1.1257 C.ar    1  UNL1        0.0225
     18 C          -4.2494   -1.7244    2.0615 C.ar    1  UNL1       -0.0473
     19 S          -5.2717    0.2846    0.4292 S.2     1  UNL1       -0.0687
     20 C          -4.1594    1.1691   -0.4887 C.ar    1  UNL1        0.1093
     21 N          -4.5942    2.1584   -1.2991 N.ar    1  UNL1       -0.2478
     22 C          -3.6190    2.7916   -1.9749 C.ar    1  UNL1        0.0289
     23 C          -2.2731    2.4987   -1.8888 C.ar    1  UNL1       -0.0429
     24 C          -1.8705    1.4690   -1.0411 C.ar    1  UNL1       -0.0500
     25 C          -2.8446    0.7580   -0.2972 C.ar    1  UNL1        0.0159
     26 H          -3.3097   -3.2361    3.2675 H       1  UNL1        0.0618
     27 H          -1.0366   -2.6992    2.4945 H       1  UNL1        0.0624
     28 H           0.1156    0.6219    2.2957 H       1  UNL1        0.0624
     29 H           2.4144    1.0733    1.5794 H       1  UNL1        0.0624
     30 H           3.5852   -0.4520   -2.6344 H       1  UNL1        0.0851
     31 H           7.3525    0.7675   -1.5063 H       1  UNL1        0.0845
     32 H           6.5594    1.0351    0.8679 H       1  UNL1        0.0845
     33 H           1.9636   -1.7928   -1.6204 H       1  UNL1        0.0624
     34 H          -0.3278   -2.2195   -0.9089 H       1  UNL1        0.0624
     35 H          -5.2535   -1.9631    2.4033 H       1  UNL1        0.0629
     36 H          -3.9657    3.5898   -2.6273 H       1  UNL1        0.0830
     37 H          -1.5460    3.0584   -2.4671 H       1  UNL1        0.0633
     38 H          -0.8150    1.2319   -0.9643 H       1  UNL1        0.0625
@<TRIPOS>BOND
     1     1     2   ar
     2     2     3   ar
     3     3     4    1
     4     4     5   ar
     5     5     6   ar
     6     6     7   ar
     7     7     8    1
     8     8     9   ar
     9     9    10   ar
    10    10    11   ar
    11    11    12   ar
    12    12    13   ar
    13     7    14   ar
    14    14    15   ar
    15     3    16   ar
    16    16    17   ar
    17    17    18   ar
    18    17    19   ar
    19    19    20   ar
    20    20    21   ar
    21    21    22   ar
    22    22    23   ar
    23    23    24   ar
    24    24    25   ar
    25    18     1   ar
    26    25    20   ar
    27    15     4   ar
    28    25    16   ar
    29    13     8   ar
    30     1    26    1
    31     2    27    1
    32     5    28    1
    33     6    29    1
    34     9    30    1
    35    11    31    1
    36    12    32    1
    37    14    33    1
    38    15    34    1
    39    18    35    1
    40    22    36    1
    41    23    37    1
    42    24    38    1
