@<TRIPOS>MOLECULE
*****
 33 37 0 0 0
SMALL
GASTEIGER

@<TRIPOS>ATOM
      1 C          -1.3784   -2.7438   -2.0763 C.ar    1  UNL1       -0.0592
      2 C          -0.1638   -2.2695   -1.5901 C.ar    1  UNL1       -0.0533
      3 C          -0.1010   -1.1294   -0.7649 C.ar    1  UNL1       -0.0081
      4 C           1.1833   -0.6493   -0.2560 C.ar    1  UNL1       -0.0150
      5 C           1.6729   -1.1100    0.9810 C.ar    1  UNL1       -0.0519
      6 C           2.8995   -0.6798    1.5055 C.ar    1  UNL1       -0.0342
      7 C           3.6138    0.2319    0.7302 C.ar    1  UNL1        0.0858
      8 N           4.8133    0.8657    0.8930 N.ar    1  UNL1       -0.2571
      9 N           5.0981    1.6751   -0.1398 N.ar    1  UNL1       -0.0673
     10 N           4.0933    1.5862   -1.0030 N.ar    1  UNL1       -0.1297
     11 C           3.1719    0.7094   -0.4954 C.ar    1  UNL1        0.1130
     12 C           1.9437    0.2684   -1.0060 C.ar    1  UNL1       -0.0247
     13 C          -1.3084   -0.4567   -0.4318 C.ar    1  UNL1        0.0152
     14 C          -2.5077   -0.9672   -0.9386 C.ar    1  UNL1        0.0481
     15 C          -2.5739   -2.1009   -1.7576 C.ar    1  UNL1       -0.0377
     16 N          -3.5237   -0.1609   -0.4826 N.ar    1  UNL1       -0.3529
     17 C          -3.0341    0.8542    0.2990 C.ar    1  UNL1        0.0658
     18 C          -3.6990    1.8826    0.9547 C.ar    1  UNL1        0.0514
     19 N          -2.9857    2.7780    1.6717 N.ar    1  UNL1       -0.2612
     20 C          -1.6432    2.6480    1.7254 C.ar    1  UNL1        0.0283
     21 C          -0.9196    1.6455    1.0966 C.ar    1  UNL1       -0.0338
     22 C          -1.6491    0.7044    0.3507 C.ar    1  UNL1        0.0109
     23 H          -1.3955   -3.6261   -2.7122 H       1  UNL1        0.0618
     24 H           0.7534   -2.7927   -1.8551 H       1  UNL1        0.0624
     25 H           1.0801   -1.8220    1.5559 H       1  UNL1        0.0624
     26 H           3.2630   -1.0421    2.4609 H       1  UNL1        0.0639
     27 H           5.4737    0.8005    1.6574 H       1  UNL1        0.1907
     28 H           1.5921    0.6402   -1.9633 H       1  UNL1        0.0646
     29 H          -3.5204   -2.4726   -2.1377 H       1  UNL1        0.0638
     30 H          -4.5002   -0.2989   -0.6982 H       1  UNL1        0.1659
     31 H          -4.7732    2.0175    0.9279 H       1  UNL1        0.0851
     32 H          -1.1337    3.4063    2.3143 H       1  UNL1        0.0830
     33 H           0.1587    1.6082    1.1845 H       1  UNL1        0.0639
@<TRIPOS>BOND
     1     1     2   ar
     2     2     3   ar
     3     3     4    1
     4     4     5   ar
     5     5     6   ar
     6     6     7   ar
     7     7     8   ar
     8     8     9   ar
     9     9    10   ar
    10    10    11   ar
    11    11    12   ar
    12     3    13   ar
    13    13    14   ar
    14    14    15   ar
    15    14    16   ar
    16    16    17   ar
    17    17    18   ar
    18    18    19   ar
    19    19    20   ar
    20    20    21   ar
    21    21    22   ar
    22    15     1   ar
    23    22    17   ar
    24    12     4   ar
    25    22    13   ar
    26    11     7   ar
    27     1    23    1
    28     2    24    1
    29     5    25    1
    30     6    26    1
    31     8    27    1
    32    12    28    1
    33    15    29    1
    34    16    30    1
    35    18    31    1
    36    20    32    1
    37    21    33    1
