@<TRIPOS>MOLECULE
*****
 32 36 0 0 0
SMALL
GASTEIGER

@<TRIPOS>ATOM
      1 C           0.7835    3.6941   -0.6286 C.ar    1  UNL1       -0.0577
      2 C          -0.2626    2.7701   -0.6625 C.ar    1  UNL1       -0.0532
      3 C          -0.0569    1.4111   -0.3446 C.ar    1  UNL1       -0.0064
      4 C          -1.1564    0.4489   -0.3836 C.ar    1  UNL1       -0.0150
      5 C          -1.5352   -0.1459   -1.6019 C.ar    1  UNL1       -0.0519
      6 C          -2.5820   -1.0744   -1.6860 C.ar    1  UNL1       -0.0342
      7 C          -3.2323   -1.3782   -0.4914 C.ar    1  UNL1        0.0858
      8 N          -4.2692   -2.2089   -0.1713 N.ar    1  UNL1       -0.2571
      9 N          -4.5521   -2.1755    1.1408 N.ar    1  UNL1       -0.0673
     10 N          -3.7126   -1.3170    1.7070 N.ar    1  UNL1       -0.1297
     11 C          -2.8951   -0.8143    0.7306 C.ar    1  UNL1        0.1130
     12 C          -1.8479    0.1147    0.7968 C.ar    1  UNL1       -0.0247
     13 C           1.2493    0.9950    0.0128 C.ar    1  UNL1        0.0372
     14 C           2.2594    1.9535    0.0312 C.ar    1  UNL1        0.1388
     15 C           2.0755    3.3001   -0.2781 C.ar    1  UNL1       -0.0186
     16 O           3.4475    1.4014    0.3898 O.2     1  UNL1       -0.4368
     17 C           3.2276    0.0779    0.6090 C.ar    1  UNL1        0.2284
     18 N           4.2061   -0.7681    0.9823 N.ar    1  UNL1       -0.2205
     19 C           3.7769   -2.0369    1.1485 C.ar    1  UNL1        0.0314
     20 C           2.4752   -2.4823    0.9639 C.ar    1  UNL1       -0.0428
     21 C           1.4953   -1.5692    0.5735 C.ar    1  UNL1       -0.0474
     22 C           1.8851   -0.2302    0.3892 C.ar    1  UNL1        0.0482
     23 H           0.5902    4.7357   -0.8770 H       1  UNL1        0.0619
     24 H          -1.2596    3.1122   -0.9376 H       1  UNL1        0.0624
     25 H          -0.9985    0.1168   -2.5141 H       1  UNL1        0.0624
     26 H          -2.8622   -1.5253   -2.6318 H       1  UNL1        0.0639
     27 H          -4.8161   -2.8124   -0.7726 H       1  UNL1        0.1907
     28 H          -1.5821    0.5585    1.7513 H       1  UNL1        0.0646
     29 H           2.9013    4.0013   -0.2452 H       1  UNL1        0.0654
     30 H           4.5528   -2.7360    1.4538 H       1  UNL1        0.0831
     31 H           2.2249   -3.5262    1.1233 H       1  UNL1        0.0633
     32 H           0.4703   -1.8907    0.4225 H       1  UNL1        0.0626
@<TRIPOS>BOND
     1     1     2   ar
     2     2     3   ar
     3     3     4    1
     4     4     5   ar
     5     5     6   ar
     6     6     7   ar
     7     7     8   ar
     8     8     9   ar
     9     9    10   ar
    10    10    11   ar
    11    11    12   ar
    12     3    13   ar
    13    13    14   ar
    14    14    15   ar
    15    14    16   ar
    16    16    17   ar
    17    17    18   ar
    18    18    19   ar
    19    19    20   ar
    20    20    21   ar
    21    21    22   ar
    22    15     1   ar
    23    22    17   ar
    24    12     4   ar
    25    22    13   ar
    26    11     7   ar
    27     1    23    1
    28     2    24    1
    29     5    25    1
    30     6    26    1
    31     8    27    1
    32    12    28    1
    33    15    29    1
    34    19    30    1
    35    20    31    1
    36    21    32    1
