@<TRIPOS>MOLECULE
*****
 32 36 0 0 0
SMALL
GASTEIGER

@<TRIPOS>ATOM
      1 C          -1.2558   -3.6641    0.2687 C.ar    1  UNL1       -0.0601
      2 C          -0.1294   -2.8617    0.3370 C.ar    1  UNL1       -0.0534
      3 C          -0.2175   -1.4639    0.1760 C.ar    1  UNL1       -0.0090
      4 C           1.0031   -0.6599    0.2658 C.ar    1  UNL1       -0.0151
      5 C           1.4313   -0.1576    1.5098 C.ar    1  UNL1       -0.0519
      6 C           2.6002    0.6041    1.6448 C.ar    1  UNL1       -0.0342
      7 C           3.3222    0.8352    0.4752 C.ar    1  UNL1        0.0858
      8 N           4.4795    1.5096    0.2039 N.ar    1  UNL1       -0.2571
      9 N           4.7932    1.4633   -1.1007 N.ar    1  UNL1       -0.0673
     10 N           3.8533    0.7517   -1.7109 N.ar    1  UNL1       -0.1297
     11 C           2.9416    0.3547   -0.7697 C.ar    1  UNL1        0.1130
     12 C           1.7715   -0.4075   -0.8876 C.ar    1  UNL1       -0.0247
     13 C          -1.4889   -0.8487   -0.0667 C.ar    1  UNL1        0.0061
     14 C          -2.6050   -1.6967   -0.1251 C.ar    1  UNL1        0.0225
     15 C          -2.5029   -3.0937    0.0393 C.ar    1  UNL1       -0.0473
     16 S          -4.0628   -0.8341   -0.4127 S.2     1  UNL1       -0.0687
     17 C          -3.2606    0.6541   -0.4721 C.ar    1  UNL1        0.1093
     18 N          -3.9632    1.7865   -0.6923 N.ar    1  UNL1       -0.2478
     19 C          -3.2177    2.9052   -0.7252 C.ar    1  UNL1        0.0289
     20 C          -1.8494    2.9535   -0.5517 C.ar    1  UNL1       -0.0429
     21 C          -1.1663    1.7609   -0.3230 C.ar    1  UNL1       -0.0500
     22 C          -1.8879    0.5423   -0.2777 C.ar    1  UNL1        0.0159
     23 H          -1.1673   -4.7405    0.3946 H       1  UNL1        0.0618
     24 H           0.8399   -3.3243    0.5183 H       1  UNL1        0.0624
     25 H           0.8374   -0.3629    2.4010 H       1  UNL1        0.0624
     26 H           2.9173    0.9856    2.6092 H       1  UNL1        0.0639
     27 H           5.0917    2.0115    0.8348 H       1  UNL1        0.1907
     28 H           1.4710   -0.7869   -1.8593 H       1  UNL1        0.0646
     29 H          -3.3894   -3.7210   -0.0140 H       1  UNL1        0.0629
     30 H          -3.7800    3.8184   -0.9064 H       1  UNL1        0.0830
     31 H          -1.3185    3.8983   -0.5952 H       1  UNL1        0.0633
     32 H          -0.0906    1.7888   -0.1883 H       1  UNL1        0.0625
@<TRIPOS>BOND
     1     1     2   ar
     2     2     3   ar
     3     3     4    1
     4     4     5   ar
     5     5     6   ar
     6     6     7   ar
     7     7     8   ar
     8     8     9   ar
     9     9    10   ar
    10    10    11   ar
    11    11    12   ar
    12     3    13   ar
    13    13    14   ar
    14    14    15   ar
    15    14    16   ar
    16    16    17   ar
    17    17    18   ar
    18    18    19   ar
    19    19    20   ar
    20    20    21   ar
    21    21    22   ar
    22    15     1   ar
    23    22    17   ar
    24    12     4   ar
    25    22    13   ar
    26    11     7   ar
    27     1    23    1
    28     2    24    1
    29     5    25    1
    30     6    26    1
    31     8    27    1
    32    12    28    1
    33    15    29    1
    34    19    30    1
    35    20    31    1
    36    21    32    1
