@<TRIPOS>MOLECULE
*****
 40 45 0 0 0
SMALL
GASTEIGER

@<TRIPOS>ATOM
      1 C           2.9641    2.4819    2.4948 C.ar    1  UNL1       -0.0592
      2 C           1.6934    2.2444    1.9791 C.ar    1  UNL1       -0.0533
      3 C           1.4625    1.2111    1.0499 C.ar    1  UNL1       -0.0081
      4 C           0.1206    0.9709    0.5196 C.ar    1  UNL1       -0.0153
      5 C          -0.3250    1.6597   -0.6169 C.ar    1  UNL1       -0.0533
      6 C          -1.6040    1.4437   -1.1480 C.ar    1  UNL1       -0.0514
      7 C          -2.4635    0.5166   -0.5266 C.ar    1  UNL1        0.0090
      8 C          -2.0076   -0.1577    0.6088 C.ar    1  UNL1        0.0492
      9 C          -0.7330    0.0496    1.1521 C.ar    1  UNL1       -0.0300
     10 N          -3.0218   -0.9931    1.0179 N.ar    1  UNL1       -0.3390
     11 C          -4.1001   -0.8774    0.1885 C.ar    1  UNL1        0.1391
     12 N          -5.2456   -1.5696    0.3314 N.ar    1  UNL1       -0.2375
     13 C          -6.1595   -1.2729   -0.6208 C.ar    1  UNL1        0.0299
     14 C          -5.9866   -0.3620   -1.6553 C.ar    1  UNL1       -0.0429
     15 C          -4.7775    0.3278   -1.7551 C.ar    1  UNL1       -0.0490
     16 C          -3.7909    0.0581   -0.7909 C.ar    1  UNL1        0.0264
     17 C           2.5569    0.4030    0.6373 C.ar    1  UNL1        0.0152
     18 C           3.8171    0.6735    1.1798 C.ar    1  UNL1        0.0481
     19 C           4.0501    1.6991    2.1042 C.ar    1  UNL1       -0.0377
     20 N           4.7008   -0.2293    0.6373 N.ar    1  UNL1       -0.3529
     21 C           4.0671   -1.0747   -0.2374 C.ar    1  UNL1        0.0658
     22 C           4.5709   -2.1220   -0.9985 C.ar    1  UNL1        0.0514
     23 N           3.7345   -2.8179   -1.7992 N.ar    1  UNL1       -0.2612
     24 C           2.4299   -2.4721   -1.8361 C.ar    1  UNL1        0.0283
     25 C           1.8643   -1.4394   -1.1032 C.ar    1  UNL1       -0.0338
     26 C           2.7225   -0.7082   -0.2648 C.ar    1  UNL1        0.0109
     27 H           3.1114    3.2869    3.2111 H       1  UNL1        0.0618
     28 H           0.8633    2.8701    2.3027 H       1  UNL1        0.0624
     29 H           0.3337    2.3746   -1.1075 H       1  UNL1        0.0624
     30 H          -1.9243    1.9874   -2.0318 H       1  UNL1        0.0624
     31 H          -0.4056   -0.4929    2.0350 H       1  UNL1        0.0644
     32 H          -2.9942   -1.6121    1.8129 H       1  UNL1        0.1673
     33 H          -7.0959   -1.8189   -0.5289 H       1  UNL1        0.0830
     34 H          -6.7811   -0.1911   -2.3738 H       1  UNL1        0.0633
     35 H          -4.6068    1.0463   -2.5494 H       1  UNL1        0.0625
     36 H           5.0403    1.8857    2.5080 H       1  UNL1        0.0638
     37 H           5.6859   -0.2625    0.8550 H       1  UNL1        0.1659
     38 H           5.6109   -2.4237   -0.9926 H       1  UNL1        0.0851
     39 H           1.8158   -3.0730   -2.5017 H       1  UNL1        0.0830
     40 H           0.8072   -1.2198   -1.1864 H       1  UNL1        0.0639
@<TRIPOS>BOND
     1     1     2   ar
     2     2     3   ar
     3     3     4    1
     4     4     5   ar
     5     5     6   ar
     6     6     7   ar
     7     7     8   ar
     8     8     9   ar
     9     8    10   ar
    10    10    11   ar
    11    11    12   ar
    12    12    13   ar
    13    13    14   ar
    14    14    15   ar
    15    15    16   ar
    16     3    17   ar
    17    17    18   ar
    18    18    19   ar
    19    18    20   ar
    20    20    21   ar
    21    21    22   ar
    22    22    23   ar
    23    23    24   ar
    24    24    25   ar
    25    25    26   ar
    26    19     1   ar
    27    26    21   ar
    28     9     4   ar
    29    16    11   ar
    30    26    17   ar
    31    16     7   ar
    32     1    27    1
    33     2    28    1
    34     5    29    1
    35     6    30    1
    36     9    31    1
    37    10    32    1
    38    13    33    1
    39    14    34    1
    40    15    35    1
    41    19    36    1
    42    20    37    1
    43    22    38    1
    44    24    39    1
    45    25    40    1
