@<TRIPOS>MOLECULE
*****
 39 44 0 0 0
SMALL
GASTEIGER

@<TRIPOS>ATOM
      1 C          -3.0988   -3.5053   -0.9994 C.ar    1  UNL1       -0.0577
      2 C          -1.8113   -3.0215   -0.7585 C.ar    1  UNL1       -0.0532
      3 C          -1.5801   -1.6652   -0.4485 C.ar    1  UNL1       -0.0064
      4 C          -0.2310   -1.1606   -0.2012 C.ar    1  UNL1       -0.0152
      5 C           0.3280   -1.2353    1.0818 C.ar    1  UNL1       -0.0533
      6 C           1.6150   -0.7480    1.3476 C.ar    1  UNL1       -0.0514
      7 C           2.3660   -0.1720    0.3044 C.ar    1  UNL1        0.0090
      8 C           1.7976   -0.1101   -0.9702 C.ar    1  UNL1        0.0492
      9 C           0.5136   -0.5949   -1.2515 C.ar    1  UNL1       -0.0300
     10 N           2.7224    0.4862   -1.7970 N.ar    1  UNL1       -0.3390
     11 C           3.8505    0.8080   -1.0985 C.ar    1  UNL1        0.1391
     12 N           4.9304    1.4058   -1.6349 N.ar    1  UNL1       -0.2375
     13 C           5.9165    1.6141   -0.7326 C.ar    1  UNL1        0.0299
     14 C           5.8712    1.2694    0.6124 C.ar    1  UNL1       -0.0429
     15 C           4.7248    0.6521    1.1150 C.ar    1  UNL1       -0.0490
     16 C           3.6680    0.4109    0.2201 C.ar    1  UNL1        0.0264
     17 C          -2.6932   -0.7916   -0.3825 C.ar    1  UNL1        0.0372
     18 C          -3.9568   -1.3206   -0.6316 C.ar    1  UNL1        0.1388
     19 C          -4.2055   -2.6568   -0.9409 C.ar    1  UNL1       -0.0186
     20 O          -4.9135   -0.3608   -0.5328 O.2     1  UNL1       -0.4368
     21 C          -4.2859    0.8031   -0.2158 C.ar    1  UNL1        0.2284
     22 N          -4.9493    1.9617   -0.0416 N.ar    1  UNL1       -0.2205
     23 C          -4.1393    2.9956    0.2702 C.ar    1  UNL1        0.0314
     24 C          -2.7597    2.9309    0.4106 C.ar    1  UNL1       -0.0428
     25 C          -2.1161    1.7081    0.2201 C.ar    1  UNL1       -0.0474
     26 C          -2.9111    0.5951   -0.1084 C.ar    1  UNL1        0.0482
     27 H          -3.2425   -4.5573   -1.2369 H       1  UNL1        0.0619
     28 H          -0.9686   -3.7095   -0.8139 H       1  UNL1        0.0624
     29 H          -0.2444   -1.6745    1.8974 H       1  UNL1        0.0624
     30 H           2.0252   -0.8151    2.3511 H       1  UNL1        0.0624
     31 H           0.0995   -0.5303   -2.2542 H       1  UNL1        0.0644
     32 H           2.6057    0.6700   -2.7813 H       1  UNL1        0.1673
     33 H           6.8027    2.0957   -1.1401 H       1  UNL1        0.0830
     34 H           6.7158    1.4776    1.2604 H       1  UNL1        0.0633
     35 H           4.6541    0.3687    2.1595 H       1  UNL1        0.0625
     36 H          -5.2127   -3.0121   -1.1251 H       1  UNL1        0.0654
     37 H          -4.6566    3.9419    0.4155 H       1  UNL1        0.0831
     38 H          -2.1914    3.8196    0.6653 H       1  UNL1        0.0633
     39 H          -1.0389    1.6271    0.3251 H       1  UNL1        0.0626
@<TRIPOS>BOND
     1     1     2   ar
     2     2     3   ar
     3     3     4    1
     4     4     5   ar
     5     5     6   ar
     6     6     7   ar
     7     7     8   ar
     8     8     9   ar
     9     8    10   ar
    10    10    11   ar
    11    11    12   ar
    12    12    13   ar
    13    13    14   ar
    14    14    15   ar
    15    15    16   ar
    16     3    17   ar
    17    17    18   ar
    18    18    19   ar
    19    18    20   ar
    20    20    21   ar
    21    21    22   ar
    22    22    23   ar
    23    23    24   ar
    24    24    25   ar
    25    25    26   ar
    26    19     1   ar
    27    26    21   ar
    28     9     4   ar
    29    16    11   ar
    30    26    17   ar
    31    16     7   ar
    32     1    27    1
    33     2    28    1
    34     5    29    1
    35     6    30    1
    36     9    31    1
    37    10    32    1
    38    13    33    1
    39    14    34    1
    40    15    35    1
    41    19    36    1
    42    23    37    1
    43    24    38    1
    44    25    39    1
