@<TRIPOS>MOLECULE
*****
 39 44 0 0 0
SMALL
GASTEIGER

@<TRIPOS>ATOM
      1 C           2.6622    1.0117   -3.9064 C.ar    1  UNL1       -0.0577
      2 C           1.4571    0.7557   -3.2494 C.ar    1  UNL1       -0.0532
      3 C           1.4250    0.3634   -1.8949 C.ar    1  UNL1       -0.0065
      4 C           0.1617    0.0992   -1.2104 C.ar    1  UNL1       -0.0161
      5 C          -0.4467   -1.1524   -1.3019 C.ar    1  UNL1       -0.0534
      6 C          -1.6524   -1.4167   -0.6419 C.ar    1  UNL1       -0.0524
      7 C          -2.2878   -0.4161    0.1367 C.ar    1  UNL1       -0.0031
      8 C          -1.6709    0.8319    0.2142 C.ar    1  UNL1        0.0211
      9 C          -0.4574    1.1041   -0.4511 C.ar    1  UNL1       -0.0397
     10 S          -2.5686    1.9178    1.1918 S.2     1  UNL1       -0.0882
     11 C          -3.7865    0.7585    1.5288 C.ar    1  UNL1        0.0205
     12 C          -4.9328    0.9472    2.3272 C.ar    1  UNL1       -0.0474
     13 C          -5.8255   -0.1127    2.4951 C.ar    1  UNL1       -0.0607
     14 C          -5.5878   -1.3347    1.8847 C.ar    1  UNL1       -0.0611
     15 C          -4.4492   -1.5164    1.0938 C.ar    1  UNL1       -0.0529
     16 C          -3.5206   -0.4594    0.9020 C.ar    1  UNL1       -0.0031
     17 C           2.6549    0.2295   -1.2047 C.ar    1  UNL1        0.0372
     18 C           3.8299    0.4961   -1.9027 C.ar    1  UNL1        0.1388
     19 C           3.8820    0.8863   -3.2399 C.ar    1  UNL1       -0.0186
     20 O           4.9176    0.3249   -1.1070 O.2     1  UNL1       -0.4368
     21 C           4.4658   -0.0570    0.1172 C.ar    1  UNL1        0.2284
     22 N           5.2924   -0.3124    1.1488 N.ar    1  UNL1       -0.2205
     23 C           4.6412   -0.6776    2.2734 C.ar    1  UNL1        0.0314
     24 C           3.2649   -0.7963    2.4105 C.ar    1  UNL1       -0.0428
     25 C           2.4485   -0.5222    1.3132 C.ar    1  UNL1       -0.0474
     26 C           3.0732   -0.1341    0.1140 C.ar    1  UNL1        0.0482
     27 H           2.6517    1.3144   -4.9515 H       1  UNL1        0.0619
     28 H           0.5225    0.8658   -3.7982 H       1  UNL1        0.0624
     29 H           0.0177   -1.9437   -1.8883 H       1  UNL1        0.0624
     30 H          -2.1011   -2.4031   -0.7303 H       1  UNL1        0.0624
     31 H          -0.0025    2.0890   -0.3686 H       1  UNL1        0.0635
     32 H          -5.1213    1.9043    2.8060 H       1  UNL1        0.0629
     33 H          -6.7127    0.0240    3.1089 H       1  UNL1        0.0618
     34 H          -6.2879   -2.1556    2.0196 H       1  UNL1        0.0618
     35 H          -4.2786   -2.4808    0.6220 H       1  UNL1        0.0624
     36 H           4.8283    1.0809   -3.7312 H       1  UNL1        0.0654
     37 H           5.2920   -0.8875    3.1198 H       1  UNL1        0.0831
     38 H           2.8319   -1.0981    3.3588 H       1  UNL1        0.0633
     39 H           1.3697   -0.6082    1.3920 H       1  UNL1        0.0626
@<TRIPOS>BOND
     1     1     2   ar
     2     2     3   ar
     3     3     4    1
     4     4     5   ar
     5     5     6   ar
     6     6     7   ar
     7     7     8   ar
     8     8     9   ar
     9     8    10   ar
    10    10    11   ar
    11    11    12   ar
    12    12    13   ar
    13    13    14   ar
    14    14    15   ar
    15    15    16   ar
    16     3    17   ar
    17    17    18   ar
    18    18    19   ar
    19    18    20   ar
    20    20    21   ar
    21    21    22   ar
    22    22    23   ar
    23    23    24   ar
    24    24    25   ar
    25    25    26   ar
    26    19     1   ar
    27    26    21   ar
    28     9     4   ar
    29    16    11   ar
    30    26    17   ar
    31    16     7   ar
    32     1    27    1
    33     2    28    1
    34     5    29    1
    35     6    30    1
    36     9    31    1
    37    12    32    1
    38    13    33    1
    39    14    34    1
    40    15    35    1
    41    19    36    1
    42    23    37    1
    43    24    38    1
    44    25    39    1
