@<TRIPOS>MOLECULE
*****
 35 39 0 0 0
SMALL
GASTEIGER

@<TRIPOS>ATOM
      1 C          -2.0122   -3.3670   -0.2297 C.ar    1  UNL1       -0.0592
      2 C          -0.7526   -2.7896   -0.3584 C.ar    1  UNL1       -0.0533
      3 C          -0.5726   -1.3959   -0.2575 C.ar    1  UNL1       -0.0081
      4 C           0.7565   -0.8065   -0.4004 C.ar    1  UNL1       -0.0151
      5 C           1.2266   -0.3949   -1.6502 C.ar    1  UNL1       -0.0519
      6 C           2.5005    0.1641   -1.7737 C.ar    1  UNL1       -0.0337
      7 C           3.3284    0.3220   -0.6713 C.ar    1  UNL1        0.0892
      8 N           4.5496    0.8693   -0.8308 N.ar    1  UNL1       -0.2519
      9 C           5.3014    0.9931    0.2840 C.ar    1  UNL1        0.0464
     10 C           4.8529    0.5860    1.5231 C.ar    1  UNL1        0.0464
     11 N           3.6325    0.0369    1.7028 N.ar    1  UNL1       -0.2519
     12 C           2.8661   -0.0964    0.6016 C.ar    1  UNL1        0.0897
     13 C           1.5967   -0.6514    0.7119 C.ar    1  UNL1       -0.0265
     14 C          -1.7073   -0.5735   -0.0169 C.ar    1  UNL1        0.0152
     15 C          -2.9550   -1.1933    0.1046 C.ar    1  UNL1        0.0481
     16 C          -3.1376   -2.5778    0.0035 C.ar    1  UNL1       -0.0377
     17 N          -3.8852   -0.2061    0.3288 N.ar    1  UNL1       -0.3529
     18 C          -3.2934    1.0307    0.3595 C.ar    1  UNL1        0.0658
     19 C          -3.8515    2.2876    0.5560 C.ar    1  UNL1        0.0514
     20 N          -3.0498    3.3745    0.5454 N.ar    1  UNL1       -0.2612
     21 C          -1.7256    3.2051    0.3457 C.ar    1  UNL1        0.0283
     22 C          -1.1063    1.9805    0.1431 C.ar    1  UNL1       -0.0338
     23 C          -1.9284    0.8410    0.1490 C.ar    1  UNL1        0.0109
     24 H          -2.1200   -4.4462   -0.3120 H       1  UNL1        0.0618
     25 H           0.1075   -3.4317   -0.5407 H       1  UNL1        0.0624
     26 H           0.6015   -0.5029   -2.5349 H       1  UNL1        0.0624
     27 H           2.8552    0.4838   -2.7505 H       1  UNL1        0.0640
     28 H           6.2829    1.4329    0.1506 H       1  UNL1        0.0845
     29 H           5.4641    0.6899    2.4120 H       1  UNL1        0.0845
     30 H           1.2532   -0.9660    1.6958 H       1  UNL1        0.0645
     31 H          -4.1194   -3.0301    0.1035 H       1  UNL1        0.0638
     32 H          -4.8728   -0.3727    0.4554 H       1  UNL1        0.1659
     33 H          -4.9083    2.4572    0.7211 H       1  UNL1        0.0851
     34 H          -1.1412    4.1215    0.3527 H       1  UNL1        0.0830
     35 H          -0.0361    1.9259   -0.0088 H       1  UNL1        0.0639
@<TRIPOS>BOND
     1     1     2   ar
     2     2     3   ar
     3     3     4    1
     4     4     5   ar
     5     5     6   ar
     6     6     7   ar
     7     7     8   ar
     8     8     9   ar
     9     9    10   ar
    10    10    11   ar
    11    11    12   ar
    12    12    13   ar
    13     3    14   ar
    14    14    15   ar
    15    15    16   ar
    16    15    17   ar
    17    17    18   ar
    18    18    19   ar
    19    19    20   ar
    20    20    21   ar
    21    21    22   ar
    22    22    23   ar
    23    16     1   ar
    24    23    18   ar
    25    13     4   ar
    26    23    14   ar
    27    12     7   ar
    28     1    24    1
    29     2    25    1
    30     5    26    1
    31     6    27    1
    32     9    28    1
    33    10    29    1
    34    13    30    1
    35    16    31    1
    36    17    32    1
    37    19    33    1
    38    21    34    1
    39    22    35    1
