@<TRIPOS>MOLECULE
*****
 39 44 0 0 0
SMALL
GASTEIGER

@<TRIPOS>ATOM
      1 SI         -2.3553   -3.2346   -2.1714 Si      1  UNL1        0.0000
      2 C          -0.7206   -2.4480   -1.7756 C.2     1  UNL1        0.0000
      3 C          -0.8634   -1.3739   -0.9722 C.ar    1  UNL1        0.0000
      4 C           0.2414   -0.5533   -0.4926 C.ar    1  UNL1        0.0000
      5 C           1.6745   -0.7197   -0.7734 C.2     1  UNL1        0.0000
      6 C           2.5238    0.1725   -0.2131 C.2     1  UNL1        0.0000
      7 SI          1.4814    1.4196    0.8171 Si      1  UNL1        0.0000
      8 C          -0.0487    0.4979    0.3106 C.ar    1  UNL1        0.0000
      9 C          -1.4045    0.8716    0.7347 C.ar    1  UNL1        0.0000
     10 N          -1.4880    1.9532    1.5372 N.ar    1  UNL1        0.0000
     11 C          -2.6940    2.3607    1.9695 C.ar    1  UNL1        0.0000
     12 C          -3.8699    1.6910    1.6081 C.ar    1  UNL1        0.0000
     13 C          -5.2263    1.9927    1.9791 C.ar    1  UNL1        0.0000
     14 C          -6.1333    1.1198    1.4390 C.ar    1  UNL1        0.0000
     15 S          -5.3734   -0.0605    0.4894 S.2     1  UNL1        0.0000
     16 C          -3.7782    0.5629    0.7706 C.ar    1  UNL1        0.0000
     17 C          -2.5175    0.1151    0.3029 C.ar    1  UNL1        0.0000
     18 C          -2.2740   -1.0585   -0.5847 C.ar    1  UNL1        0.0000
     19 C          -3.1668   -1.9204   -1.1178 C.2     1  UNL1        0.0000
     20 C           3.9651    0.2584   -0.3099 C.2     1  UNL1        0.0000
     21 C           4.8105    1.1532    0.2540 C.2     1  UNL1        0.0000
     22 C           6.2285    0.9818   -0.0295 C.2     1  UNL1        0.0000
     23 C           6.5399   -0.0544   -0.8258 C.2     1  UNL1        0.0000
     24 SI          5.0060   -0.9904   -1.3435 Si      1  UNL1        0.0000
     25 H          -2.7154   -3.1130   -3.6043 H       1  UNL1        0.0000
     26 H          -2.4921   -4.5910   -1.5888 H       1  UNL1        0.0000
     27 H           0.1937   -2.8548   -2.1751 H       1  UNL1        0.0000
     28 H           1.9879   -1.5377   -1.4082 H       1  UNL1        0.0000
     29 H           1.8275    1.3030    2.2595 H       1  UNL1        0.0000
     30 H           1.6036    2.7851    0.2389 H       1  UNL1        0.0000
     31 H          -2.6974    3.2356    2.6116 H       1  UNL1        0.0000
     32 H          -5.5121    2.8202    2.6176 H       1  UNL1        0.0000
     33 H          -7.2082    1.1218    1.5591 H       1  UNL1        0.0000
     34 H          -4.2355   -1.9510   -1.0217 H       1  UNL1        0.0000
     35 H           4.5110    1.9757    0.8919 H       1  UNL1        0.0000
     36 H           6.9620    1.6609    0.3883 H       1  UNL1        0.0000
     37 H           7.5250   -0.3484   -1.1513 H       1  UNL1        0.0000
     38 H           4.9585   -2.3635   -0.7805 H       1  UNL1        0.0000
     39 H           4.7343   -0.8796   -2.7990 H       1  UNL1        0.0000
@<TRIPOS>BOND
     1     1     2    1
     2     2     3    2
     3     3     4   ar
     4     4     5    1
     5     5     6    2
     6     6     7    1
     7     7     8    1
     8     8     9   ar
     9     9    10   ar
    10    10    11   ar
    11    11    12   ar
    12    12    13   ar
    13    13    14   ar
    14    14    15   ar
    15    15    16   ar
    16    16    17   ar
    17    17    18   ar
    18    18    19    2
    19     6    20    1
    20    20    21    2
    21    21    22    1
    22    22    23    2
    23    23    24    1
    24    19     1    1
    25    24    20    1
    26    18     3   ar
    27     8     4   ar
    28    17     9   ar
    29    16    12   ar
    30     1    25    1
    31     1    26    1
    32     2    27    1
    33     5    28    1
    34     7    29    1
    35     7    30    1
    36    11    31    1
    37    13    32    1
    38    14    33    1
    39    19    34    1
    40    21    35    1
    41    22    36    1
    42    23    37    1
    43    24    38    1
    44    24    39    1
