@<TRIPOS>MOLECULE
*****
 34 38 0 0 0
SMALL
GASTEIGER

@<TRIPOS>ATOM
      1 C          -1.6890    3.6299    0.6684 C.ar    1  UNL1       -0.0577
      2 C          -0.5050    2.8901    0.6827 C.ar    1  UNL1       -0.0532
      3 C          -0.4980    1.5049    0.4158 C.ar    1  UNL1       -0.0064
      4 C           0.7434    0.7369    0.4329 C.ar    1  UNL1       -0.0150
      5 C           1.2387    0.2030    1.6252 C.ar    1  UNL1       -0.0519
      6 C           2.4264   -0.5320    1.6273 C.ar    1  UNL1       -0.0337
      7 C           3.1425   -0.7491    0.4585 C.ar    1  UNL1        0.0892
      8 N           4.2819   -1.4672    0.5007 N.ar    1  UNL1       -0.2519
      9 C           4.9271   -1.6380   -0.6732 C.ar    1  UNL1        0.0464
     10 C           4.4521   -1.1129   -1.8569 C.ar    1  UNL1        0.0464
     11 N           3.3108   -0.3937   -1.9192 N.ar    1  UNL1       -0.2519
     12 C           2.6537   -0.2091   -0.7570 C.ar    1  UNL1        0.0897
     13 C           1.4712    0.5214   -0.7466 C.ar    1  UNL1       -0.0265
     14 C          -1.7314    0.8692    0.1302 C.ar    1  UNL1        0.0372
     15 C          -2.8848    1.6496    0.1284 C.ar    1  UNL1        0.1388
     16 C          -2.9119    3.0187    0.3886 C.ar    1  UNL1       -0.0186
     17 O          -3.9795    0.8990   -0.1600 O.2     1  UNL1       -0.4368
     18 C          -3.5546   -0.3784   -0.3491 C.ar    1  UNL1        0.2284
     19 N          -4.3952   -1.3852   -0.6525 N.ar    1  UNL1       -0.2205
     20 C          -3.7712   -2.5729   -0.7984 C.ar    1  UNL1        0.0314
     21 C          -2.4077   -2.7937   -0.6602 C.ar    1  UNL1       -0.0428
     22 C          -1.5757   -1.7196   -0.3437 C.ar    1  UNL1       -0.0474
     23 C          -2.1720   -0.4559   -0.1813 C.ar    1  UNL1        0.0482
     24 H          -1.6594    4.6975    0.8771 H       1  UNL1        0.0619
     25 H           0.4322    3.3999    0.9031 H       1  UNL1        0.0624
     26 H           0.7021    0.3519    2.5606 H       1  UNL1        0.0624
     27 H           2.8021   -0.9450    2.5604 H       1  UNL1        0.0640
     28 H           5.8443   -2.2140   -0.6338 H       1  UNL1        0.0845
     29 H           4.9773   -1.2556   -2.7942 H       1  UNL1        0.0845
     30 H           1.1087    0.9293   -1.6886 H       1  UNL1        0.0645
     31 H          -3.8421    3.5747    0.3723 H       1  UNL1        0.0654
     32 H          -4.4338   -3.4000   -1.0454 H       1  UNL1        0.0831
     33 H          -1.9966   -3.7887   -0.7975 H       1  UNL1        0.0633
     34 H          -0.5067   -1.8653   -0.2302 H       1  UNL1        0.0626
@<TRIPOS>BOND
     1     1     2   ar
     2     2     3   ar
     3     3     4    1
     4     4     5   ar
     5     5     6   ar
     6     6     7   ar
     7     7     8   ar
     8     8     9   ar
     9     9    10   ar
    10    10    11   ar
    11    11    12   ar
    12    12    13   ar
    13     3    14   ar
    14    14    15   ar
    15    15    16   ar
    16    15    17   ar
    17    17    18   ar
    18    18    19   ar
    19    19    20   ar
    20    20    21   ar
    21    21    22   ar
    22    22    23   ar
    23    16     1   ar
    24    23    18   ar
    25    13     4   ar
    26    23    14   ar
    27    12     7   ar
    28     1    24    1
    29     2    25    1
    30     5    26    1
    31     6    27    1
    32     9    28    1
    33    10    29    1
    34    13    30    1
    35    16    31    1
    36    20    32    1
    37    21    33    1
    38    22    34    1
