@<TRIPOS>MOLECULE
*****
 34 38 0 0 0
SMALL
GASTEIGER

@<TRIPOS>ATOM
      1 C          -1.6677   -3.7341    0.4591 C.ar    1  UNL1       -0.0601
      2 C          -0.5120   -2.9722    0.4276 C.ar    1  UNL1       -0.0534
      3 C          -0.5663   -1.5646    0.3681 C.ar    1  UNL1       -0.0090
      4 C           0.6848   -0.8069    0.3424 C.ar    1  UNL1       -0.0151
      5 C           1.2940   -0.3900    1.5292 C.ar    1  UNL1       -0.0519
      6 C           2.4959    0.3205    1.4910 C.ar    1  UNL1       -0.0337
      7 C           3.1161    0.6247    0.2873 C.ar    1  UNL1        0.0892
      8 N           4.2728    1.3158    0.2920 N.ar    1  UNL1       -0.2519
      9 C           4.8216    1.5749   -0.9143 C.ar    1  UNL1        0.0464
     10 C           4.2365    1.1615   -2.0929 C.ar    1  UNL1        0.0464
     11 N           3.0763    0.4709   -2.1176 N.ar    1  UNL1       -0.2519
     12 C           2.5137    0.2000   -0.9232 C.ar    1  UNL1        0.0897
     13 C           1.3179   -0.5067   -0.8732 C.ar    1  UNL1       -0.0265
     14 C          -1.8340   -0.8966    0.3366 C.ar    1  UNL1        0.0061
     15 C          -2.9799   -1.7052    0.3724 C.ar    1  UNL1        0.0225
     16 C          -2.9111   -3.1126    0.4331 C.ar    1  UNL1       -0.0473
     17 S          -4.4287   -0.7826    0.3347 S.2     1  UNL1       -0.0687
     18 C          -3.5850    0.6820    0.2668 C.ar    1  UNL1        0.1093
     19 N          -4.2667    1.8468    0.2155 N.ar    1  UNL1       -0.2478
     20 C          -3.4902    2.9433    0.1604 C.ar    1  UNL1        0.0289
     21 C          -2.1102    2.9397    0.1553 C.ar    1  UNL1       -0.0429
     22 C          -1.4488    1.7146    0.2113 C.ar    1  UNL1       -0.0500
     23 C          -2.2038    0.5170    0.2708 C.ar    1  UNL1        0.0159
     24 H          -1.6051   -4.8187    0.5045 H       1  UNL1        0.0618
     25 H           0.4537   -3.4755    0.4493 H       1  UNL1        0.0624
     26 H           0.8357   -0.6130    2.4912 H       1  UNL1        0.0624
     27 H           2.9600    0.6432    2.4199 H       1  UNL1        0.0640
     28 H           5.7531    2.1289   -0.9052 H       1  UNL1        0.0845
     29 H           4.6850    1.3744   -3.0564 H       1  UNL1        0.0845
     30 H           0.8676   -0.8272   -1.8112 H       1  UNL1        0.0645
     31 H          -3.8205   -3.7081    0.4584 H       1  UNL1        0.0629
     32 H          -4.0362    3.8828    0.1174 H       1  UNL1        0.0830
     33 H          -1.5539    3.8695    0.1075 H       1  UNL1        0.0633
     34 H          -0.3646    1.7034    0.2055 H       1  UNL1        0.0625
@<TRIPOS>BOND
     1     1     2   ar
     2     2     3   ar
     3     3     4    1
     4     4     5   ar
     5     5     6   ar
     6     6     7   ar
     7     7     8   ar
     8     8     9   ar
     9     9    10   ar
    10    10    11   ar
    11    11    12   ar
    12    12    13   ar
    13     3    14   ar
    14    14    15   ar
    15    15    16   ar
    16    15    17   ar
    17    17    18   ar
    18    18    19   ar
    19    19    20   ar
    20    20    21   ar
    21    21    22   ar
    22    22    23   ar
    23    16     1   ar
    24    23    18   ar
    25    13     4   ar
    26    23    14   ar
    27    12     7   ar
    28     1    24    1
    29     2    25    1
    30     5    26    1
    31     6    27    1
    32     9    28    1
    33    10    29    1
    34    13    30    1
    35    16    31    1
    36    20    32    1
    37    21    33    1
    38    22    34    1
