@<TRIPOS>MOLECULE
*****
 33 37 0 0 0
SMALL
GASTEIGER

@<TRIPOS>ATOM
      1 C          -1.5834   -3.3894   -0.3358 C.ar    1  UNL1       -0.0592
      2 C          -0.3970   -2.6785   -0.4831 C.ar    1  UNL1       -0.0518
      3 C          -0.3479   -1.2779   -0.3140 C.ar    1  UNL1        0.0116
      4 C           0.8985   -0.5550   -0.5436 C.ar    1  UNL1        0.0922
      5 C           1.0426    0.3896   -1.5485 C.ar    1  UNL1        0.0561
      6 N           2.2000    1.0496   -1.7759 N.ar    1  UNL1       -0.2310
      7 C           3.2360    0.7338   -0.9901 C.ar    1  UNL1        0.1977
      8 N           4.3968    1.3720   -1.1920 N.ar    1  UNL1       -0.2316
      9 C           5.4272    1.0338   -0.3910 C.ar    1  UNL1        0.0482
     10 C           5.3050    0.0786    0.5932 C.ar    1  UNL1        0.0482
     11 N           4.1474   -0.5755    0.8162 N.ar    1  UNL1       -0.2316
     12 C           3.1070   -0.2561    0.0340 C.ar    1  UNL1        0.1983
     13 N           1.9468   -0.8911    0.2427 N.ar    1  UNL1       -0.2231
     14 C          -1.5402   -0.5962    0.0624 C.ar    1  UNL1        0.0167
     15 C          -2.7150   -1.3471    0.1827 C.ar    1  UNL1        0.0481
     16 C          -2.7682   -2.7322   -0.0135 C.ar    1  UNL1       -0.0377
     17 N          -3.7288   -0.4808    0.5151 N.ar    1  UNL1       -0.3529
     18 C          -3.2568    0.7984    0.6550 C.ar    1  UNL1        0.0658
     19 C          -3.9280    1.9661    0.9959 C.ar    1  UNL1        0.0514
     20 N          -3.2345    3.1198    1.0972 N.ar    1  UNL1       -0.2612
     21 C          -1.9038    3.1008    0.8775 C.ar    1  UNL1        0.0283
     22 C          -1.1751    1.9709    0.5333 C.ar    1  UNL1       -0.0338
     23 C          -1.8860    0.7648    0.4006 C.ar    1  UNL1        0.0109
     24 H          -1.5860   -4.4679   -0.4775 H       1  UNL1        0.0618
     25 H           0.5136   -3.2187   -0.7407 H       1  UNL1        0.0624
     26 H           0.2205    0.6492   -2.2089 H       1  UNL1        0.0852
     27 H           6.3601    1.5578   -0.5665 H       1  UNL1        0.0846
     28 H           6.1366   -0.1906    1.2350 H       1  UNL1        0.0846
     29 H          -3.6954   -3.2866    0.0957 H       1  UNL1        0.0638
     30 H          -4.6891   -0.7572    0.6604 H       1  UNL1        0.1659
     31 H          -4.9916    2.0123    1.1950 H       1  UNL1        0.0851
     32 H          -1.4075    4.0611    0.9932 H       1  UNL1        0.0830
     33 H          -0.1039    2.0423    0.3960 H       1  UNL1        0.0639
@<TRIPOS>BOND
     1     1     2   ar
     2     2     3   ar
     3     3     4    1
     4     4     5   ar
     5     5     6   ar
     6     6     7   ar
     7     7     8   ar
     8     8     9   ar
     9     9    10   ar
    10    10    11   ar
    11    11    12   ar
    12    12    13   ar
    13     3    14   ar
    14    14    15   ar
    15    15    16   ar
    16    15    17   ar
    17    17    18   ar
    18    18    19   ar
    19    19    20   ar
    20    20    21   ar
    21    21    22   ar
    22    22    23   ar
    23    16     1   ar
    24    23    18   ar
    25    13     4   ar
    26    23    14   ar
    27    12     7   ar
    28     1    24    1
    29     2    25    1
    30     5    26    1
    31     9    27    1
    32    10    28    1
    33    16    29    1
    34    17    30    1
    35    19    31    1
    36    21    32    1
    37    22    33    1
