@<TRIPOS>MOLECULE
*****
 32 36 0 0 0
SMALL
GASTEIGER

@<TRIPOS>ATOM
      1 C           0.8525    0.2637   -3.7659 C.ar    1  UNL1       -0.0576
      2 C          -0.1600    0.2841   -2.8060 C.ar    1  UNL1       -0.0517
      3 C           0.1211    0.2085   -1.4224 C.ar    1  UNL1        0.0133
      4 C          -0.9532    0.2827   -0.4388 C.ar    1  UNL1        0.0922
      5 C          -1.0402    1.2909    0.5087 C.ar    1  UNL1        0.0561
      6 N          -2.0394    1.3617    1.4157 N.ar    1  UNL1       -0.2310
      7 C          -2.9807    0.4126    1.3497 C.ar    1  UNL1        0.1977
      8 N          -3.9846    0.4579    2.2357 N.ar    1  UNL1       -0.2316
      9 C          -4.9229   -0.5062    2.1454 C.ar    1  UNL1        0.0482
     10 C          -4.8623   -1.4981    1.1921 C.ar    1  UNL1        0.0482
     11 N          -3.8603   -1.5657    0.2923 N.ar    1  UNL1       -0.2316
     12 C          -2.9150   -0.6188    0.3617 C.ar    1  UNL1        0.1983
     13 N          -1.9083   -0.6709   -0.5204 N.ar    1  UNL1       -0.2231
     14 C           1.4759    0.0642   -1.0253 C.ar    1  UNL1        0.0388
     15 C           2.4505    0.0607   -2.0219 C.ar    1  UNL1        0.1389
     16 C           2.1899    0.1632   -3.3872 C.ar    1  UNL1       -0.0186
     17 O           3.6933   -0.0566   -1.4893 O.2     1  UNL1       -0.4368
     18 C           3.5486   -0.1646   -0.1435 C.ar    1  UNL1        0.2284
     19 N           4.5978   -0.3071    0.6870 N.ar    1  UNL1       -0.2205
     20 C           4.2414   -0.4229    1.9824 C.ar    1  UNL1        0.0314
     21 C           2.9412   -0.4063    2.4659 C.ar    1  UNL1       -0.0428
     22 C           1.8844   -0.2519    1.5673 C.ar    1  UNL1       -0.0474
     23 C           2.1972   -0.1135    0.2017 C.ar    1  UNL1        0.0482
     24 H           0.5962    0.3279   -4.8215 H       1  UNL1        0.0619
     25 H          -1.1961    0.3637   -3.1368 H       1  UNL1        0.0624
     26 H          -0.3004    2.0835    0.5702 H       1  UNL1        0.0852
     27 H          -5.7304   -0.4559    2.8675 H       1  UNL1        0.0846
     28 H          -5.6194   -2.2713    1.1226 H       1  UNL1        0.0846
     29 H           2.9934    0.1484   -4.1147 H       1  UNL1        0.0654
     30 H           5.0768   -0.5423    2.6694 H       1  UNL1        0.0831
     31 H           2.7507   -0.5170    3.5289 H       1  UNL1        0.0633
     32 H           0.8621   -0.2565    1.9296 H       1  UNL1        0.0626
@<TRIPOS>BOND
     1     1     2   ar
     2     2     3   ar
     3     3     4    1
     4     4     5   ar
     5     5     6   ar
     6     6     7   ar
     7     7     8   ar
     8     8     9   ar
     9     9    10   ar
    10    10    11   ar
    11    11    12   ar
    12    12    13   ar
    13     3    14   ar
    14    14    15   ar
    15    15    16   ar
    16    15    17   ar
    17    17    18   ar
    18    18    19   ar
    19    19    20   ar
    20    20    21   ar
    21    21    22   ar
    22    22    23   ar
    23    16     1   ar
    24    23    18   ar
    25    13     4   ar
    26    23    14   ar
    27    12     7   ar
    28     1    24    1
    29     2    25    1
    30     5    26    1
    31     9    27    1
    32    10    28    1
    33    16    29    1
    34    20    30    1
    35    21    31    1
    36    22    32    1
