@<TRIPOS>MOLECULE
*****
 32 36 0 0 0
SMALL
GASTEIGER

@<TRIPOS>ATOM
      1 C          -0.9955    2.9190   -2.5276 C.ar    1  UNL1       -0.0601
      2 C           0.0014    2.3611   -1.7453 C.ar    1  UNL1       -0.0519
      3 C          -0.2668    1.2831   -0.8756 C.ar    1  UNL1        0.0107
      4 C           0.8014    0.7783   -0.0203 C.ar    1  UNL1        0.0922
      5 C           0.8553    1.0425    1.3398 C.ar    1  UNL1        0.0561
      6 N           1.8518    0.5914    2.1328 N.ar    1  UNL1       -0.2310
      7 C           2.8189   -0.1196    1.5401 C.ar    1  UNL1        0.1977
      8 N           3.8205   -0.5788    2.3021 N.ar    1  UNL1       -0.2316
      9 C           4.7835   -1.2902    1.6821 C.ar    1  UNL1        0.0482
     10 C           4.7489   -1.5427    0.3289 C.ar    1  UNL1        0.0482
     11 N           3.7496   -1.0943   -0.4575 N.ar    1  UNL1       -0.2316
     12 C           2.7809   -0.3832    0.1349 C.ar    1  UNL1        0.1983
     13 N           1.7771    0.0679   -0.6286 N.ar    1  UNL1       -0.2231
     14 C          -1.5828    0.7175   -0.8243 C.ar    1  UNL1        0.0077
     15 C          -2.5690    1.3272   -1.6143 C.ar    1  UNL1        0.0226
     16 C          -2.2913    2.4200   -2.4612 C.ar    1  UNL1       -0.0473
     17 S          -4.1098    0.5950   -1.4106 S.2     1  UNL1       -0.0687
     18 C          -3.5034   -0.5614   -0.3355 C.ar    1  UNL1        0.1093
     19 N          -4.3318   -1.4906    0.1874 N.ar    1  UNL1       -0.2478
     20 C          -3.7318   -2.3757    1.0023 C.ar    1  UNL1        0.0289
     21 C          -2.3867   -2.3848    1.3110 C.ar    1  UNL1       -0.0429
     22 C          -1.5694   -1.4034    0.7533 C.ar    1  UNL1       -0.0500
     23 C          -2.1384   -0.4274   -0.1025 C.ar    1  UNL1        0.0160
     24 H          -0.7683    3.7513   -3.1895 H       1  UNL1        0.0618
     25 H           1.0104    2.7684   -1.8040 H       1  UNL1        0.0624
     26 H           0.0888    1.6278    1.8387 H       1  UNL1        0.0852
     27 H           5.5889   -1.6531    2.3109 H       1  UNL1        0.0846
     28 H           5.5256   -2.1152   -0.1660 H       1  UNL1        0.0846
     29 H          -3.0790    2.8628   -3.0662 H       1  UNL1        0.0629
     30 H          -4.3961   -3.1276    1.4222 H       1  UNL1        0.0830
     31 H          -1.9752   -3.1430    1.9688 H       1  UNL1        0.0633
     32 H          -0.5076   -1.4224    0.9737 H       1  UNL1        0.0625
@<TRIPOS>BOND
     1     1     2   ar
     2     2     3   ar
     3     3     4    1
     4     4     5   ar
     5     5     6   ar
     6     6     7   ar
     7     7     8   ar
     8     8     9   ar
     9     9    10   ar
    10    10    11   ar
    11    11    12   ar
    12    12    13   ar
    13     3    14   ar
    14    14    15   ar
    15    15    16   ar
    16    15    17   ar
    17    17    18   ar
    18    18    19   ar
    19    19    20   ar
    20    20    21   ar
    21    21    22   ar
    22    22    23   ar
    23    16     1   ar
    24    23    18   ar
    25    13     4   ar
    26    23    14   ar
    27    12     7   ar
    28     1    24    1
    29     2    25    1
    30     5    26    1
    31     9    27    1
    32    10    28    1
    33    16    29    1
    34    20    30    1
    35    21    31    1
    36    22    32    1
