@<TRIPOS>MOLECULE
*****
 27 30 0 0 0
SMALL
GASTEIGER

@<TRIPOS>ATOM
      1 C           0.8606    2.9319   -1.1496 C.ar    1  UNL1       -0.0592
      2 C           1.7254    1.9201   -0.7446 C.ar    1  UNL1       -0.0532
      3 C           1.2214    0.7018   -0.2613 C.ar    1  UNL1       -0.0036
      4 C           2.1248   -0.3267    0.1766 C.ar    1  UNL1        0.0414
      5 C           2.5414   -0.7097    1.4661 C.ar    1  UNL1        0.0777
      6 N           3.4027   -1.7306    1.4304 N.ar    1  UNL1       -0.0862
      7 O           3.5698   -2.0207    0.0832 O.2     1  UNL1       -0.3623
      8 C           2.8074   -1.1757   -0.6574 C.ar    1  UNL1        0.1319
      9 C          -0.1790    0.4912   -0.1871 C.ar    1  UNL1        0.0153
     10 C          -1.0105    1.5376   -0.6000 C.ar    1  UNL1        0.0481
     11 C          -0.5231    2.7598   -1.0821 C.ar    1  UNL1       -0.0377
     12 N          -2.3098    1.1205   -0.4345 N.ar    1  UNL1       -0.3529
     13 C          -2.3567   -0.1593    0.0568 C.ar    1  UNL1        0.0658
     14 C          -3.4486   -0.9617    0.3631 C.ar    1  UNL1        0.0514
     15 N          -3.2382   -2.2098    0.8339 N.ar    1  UNL1       -0.2612
     16 C          -1.9696   -2.6428    0.9900 C.ar    1  UNL1        0.0283
     17 C          -0.8375   -1.8935    0.7042 C.ar    1  UNL1       -0.0338
     18 C          -1.0403   -0.5899    0.2195 C.ar    1  UNL1        0.0109
     19 H           1.2668    3.8710   -1.5195 H       1  UNL1        0.0618
     20 H           2.7997    2.0854   -0.7996 H       1  UNL1        0.0624
     21 H           2.2544   -0.2980    2.4235 H       1  UNL1        0.0870
     22 H           2.8601   -1.3133   -1.7273 H       1  UNL1        0.1064
     23 H          -1.1942    3.5538   -1.3962 H       1  UNL1        0.0638
     24 H          -3.1210    1.6810   -0.6527 H       1  UNL1        0.1659
     25 H          -4.4783   -0.6474    0.2455 H       1  UNL1        0.0851
     26 H          -1.8757   -3.6576    1.3681 H       1  UNL1        0.0830
     27 H           0.1480   -2.3175    0.8509 H       1  UNL1        0.0639
@<TRIPOS>BOND
     1     1     2   ar
     2     2     3   ar
     3     3     4    1
     4     4     5   ar
     5     5     6   ar
     6     6     7   ar
     7     7     8   ar
     8     3     9   ar
     9     9    10   ar
    10    10    11   ar
    11    10    12   ar
    12    12    13   ar
    13    13    14   ar
    14    14    15   ar
    15    15    16   ar
    16    16    17   ar
    17    17    18   ar
    18    11     1   ar
    19    18    13   ar
    20     8     4   ar
    21    18     9   ar
    22     1    19    1
    23     2    20    1
    24     5    21    1
    25     8    22    1
    26    11    23    1
    27    12    24    1
    28    14    25    1
    29    16    26    1
    30    17    27    1
