@<TRIPOS>MOLECULE
*****
 26 29 0 0 0
SMALL
GASTEIGER

@<TRIPOS>ATOM
      1 C          -1.3189    3.0780    0.0913 C.ar    1  UNL1       -0.0577
      2 C          -1.9698    1.8512   -0.0465 C.ar    1  UNL1       -0.0531
      3 C          -1.2502    0.6436    0.0048 C.ar    1  UNL1       -0.0019
      4 C          -1.9210   -0.6162   -0.1661 C.ar    1  UNL1        0.0414
      5 C          -1.9153   -1.5354   -1.2336 C.ar    1  UNL1        0.0777
      6 N          -2.6813   -2.6002   -0.9810 N.ar    1  UNL1       -0.0862
      7 O          -3.2211   -2.3720    0.2768 O.2     1  UNL1       -0.3623
      8 C          -2.7664   -1.1847    0.7534 C.ar    1  UNL1        0.1319
      9 C           0.1481    0.6745    0.2084 C.ar    1  UNL1        0.0374
     10 C           0.7486    1.9253    0.3347 C.ar    1  UNL1        0.1388
     11 C           0.0635    3.1392    0.2823 C.ar    1  UNL1       -0.0186
     12 O           2.0887    1.8050    0.5157 O.2     1  UNL1       -0.4368
     13 C           2.3776    0.4768    0.5243 C.ar    1  UNL1        0.2284
     14 N           3.6284    0.0090    0.6908 N.ar    1  UNL1       -0.2205
     15 C           3.6988   -1.3384    0.6821 C.ar    1  UNL1        0.0314
     16 C           2.6248   -2.2030    0.5242 C.ar    1  UNL1       -0.0428
     17 C           1.3456   -1.6722    0.3533 C.ar    1  UNL1       -0.0474
     18 C           1.2131   -0.2714    0.3467 C.ar    1  UNL1        0.0482
     19 H          -1.8932    4.0013    0.0443 H       1  UNL1        0.0619
     20 H          -3.0469    1.8399   -0.2065 H       1  UNL1        0.0624
     21 H          -1.3878   -1.4815   -2.1759 H       1  UNL1        0.0870
     22 H          -3.1254   -0.9068    1.7334 H       1  UNL1        0.1064
     23 H           0.5868    4.0829    0.3881 H       1  UNL1        0.0654
     24 H           4.7027   -1.7363    0.8162 H       1  UNL1        0.0831
     25 H           2.7795   -3.2774    0.5363 H       1  UNL1        0.0633
     26 H           0.4912   -2.3312    0.2386 H       1  UNL1        0.0626
@<TRIPOS>BOND
     1     1     2   ar
     2     2     3   ar
     3     3     4    1
     4     4     5   ar
     5     5     6   ar
     6     6     7   ar
     7     7     8   ar
     8     3     9   ar
     9     9    10   ar
    10    10    11   ar
    11    10    12   ar
    12    12    13   ar
    13    13    14   ar
    14    14    15   ar
    15    15    16   ar
    16    16    17   ar
    17    17    18   ar
    18    11     1   ar
    19    18    13   ar
    20     8     4   ar
    21    18     9   ar
    22     1    19    1
    23     2    20    1
    24     5    21    1
    25     8    22    1
    26    11    23    1
    27    15    24    1
    28    16    25    1
    29    17    26    1
