@<TRIPOS>MOLECULE
*****
 26 29 0 0 0
SMALL
GASTEIGER

@<TRIPOS>ATOM
      1 C          -2.2718    2.5661   -0.0471 C.ar    1  UNL1       -0.0601
      2 C          -2.4501    1.2094    0.1632 C.ar    1  UNL1       -0.0532
      3 C          -1.3504    0.3355    0.1377 C.ar    1  UNL1       -0.0045
      4 C          -1.5816   -1.0651    0.3710 C.ar    1  UNL1        0.0414
      5 C          -1.5826   -1.8217    1.5589 C.ar    1  UNL1        0.0777
      6 N          -1.8644   -3.1075    1.3305 N.ar    1  UNL1       -0.0862
      7 O          -2.0801   -3.1981   -0.0375 O.2     1  UNL1       -0.3623
      8 C          -1.9192   -1.9733   -0.6011 C.ar    1  UNL1        0.1319
      9 C          -0.0259    0.8151   -0.1009 C.ar    1  UNL1        0.0063
     10 C           0.1081    2.1966   -0.3071 C.ar    1  UNL1        0.0225
     11 C          -0.9973    3.0743   -0.2835 C.ar    1  UNL1       -0.0473
     12 S           1.7402    2.6564   -0.5809 S.2     1  UNL1       -0.0687
     13 C           2.2935    1.0638   -0.4371 C.ar    1  UNL1        0.1093
     14 N           3.6103    0.7974   -0.5721 N.ar    1  UNL1       -0.2478
     15 C           3.9316   -0.5016   -0.4400 C.ar    1  UNL1        0.0289
     16 C           3.0342   -1.5194   -0.1885 C.ar    1  UNL1       -0.0429
     17 C           1.6845   -1.1990   -0.0565 C.ar    1  UNL1       -0.0500
     18 C           1.2742    0.1517   -0.1821 C.ar    1  UNL1        0.0160
     19 H          -3.1264    3.2386   -0.0269 H       1  UNL1        0.0618
     20 H          -3.4524    0.8274    0.3495 H       1  UNL1        0.0624
     21 H          -1.3860   -1.4996    2.5720 H       1  UNL1        0.0870
     22 H          -2.0715   -1.9257   -1.6694 H       1  UNL1        0.1064
     23 H          -0.8567    4.1403   -0.4477 H       1  UNL1        0.0629
     24 H           4.9917   -0.7192   -0.5479 H       1  UNL1        0.0830
     25 H           3.3728   -2.5459   -0.0958 H       1  UNL1        0.0633
     26 H           0.9753   -1.9963    0.1394 H       1  UNL1        0.0625
@<TRIPOS>BOND
     1     1     2   ar
     2     2     3   ar
     3     3     4    1
     4     4     5   ar
     5     5     6   ar
     6     6     7   ar
     7     7     8   ar
     8     3     9   ar
     9     9    10   ar
    10    10    11   ar
    11    10    12   ar
    12    12    13   ar
    13    13    14   ar
    14    14    15   ar
    15    15    16   ar
    16    16    17   ar
    17    17    18   ar
    18    11     1   ar
    19    18    13   ar
    20     8     4   ar
    21    18     9   ar
    22     1    19    1
    23     2    20    1
    24     5    21    1
    25     8    22    1
    26    11    23    1
    27    15    24    1
    28    16    25    1
    29    17    26    1
