@<TRIPOS>MOLECULE
*****
 27 30 0 0 0
SMALL
GASTEIGER

@<TRIPOS>ATOM
      1 C          -0.0403    3.2942   -0.1482 C.ar    1  UNL1       -0.0592
      2 C           1.0712    2.4689   -0.0080 C.ar    1  UNL1       -0.0518
      3 C           0.9255    1.0716    0.0385 C.ar    1  UNL1        0.0106
      4 C           2.0892    0.2276    0.1975 C.ar    1  UNL1        0.0787
      5 C           2.7873    0.1362    1.3864 C.ar    1  UNL1        0.0031
      6 S           4.1189   -0.9292    1.1962 S.2     1  UNL1       -0.0833
      7 C           3.6650   -1.1700   -0.4406 C.ar    1  UNL1        0.0654
      8 N           2.5936   -0.5258   -0.8473 N.ar    1  UNL1       -0.2474
      9 C          -0.3641    0.4916   -0.0632 C.ar    1  UNL1        0.0167
     10 C          -1.4540    1.3590   -0.1985 C.ar    1  UNL1        0.0481
     11 C          -1.3236    2.7535   -0.2440 C.ar    1  UNL1       -0.0377
     12 N          -2.5883    0.5857   -0.2721 N.ar    1  UNL1       -0.3529
     13 C          -2.2821   -0.7480   -0.1787 C.ar    1  UNL1        0.0658
     14 C          -3.1109   -1.8628   -0.1985 C.ar    1  UNL1        0.0514
     15 N          -2.5648   -3.0936   -0.0914 N.ar    1  UNL1       -0.2612
     16 C          -1.2242   -3.2026    0.0253 C.ar    1  UNL1        0.0283
     17 C          -0.3428   -2.1322    0.0528 C.ar    1  UNL1       -0.0338
     18 C          -0.8971   -0.8459   -0.0524 C.ar    1  UNL1        0.0109
     19 H           0.0920    4.3731   -0.1875 H       1  UNL1        0.0618
     20 H           2.0615    2.9149    0.0550 H       1  UNL1        0.0624
     21 H           2.5861    0.6262    2.3284 H       1  UNL1        0.0715
     22 H           4.2312   -1.8194   -1.0954 H       1  UNL1        0.0907
     23 H          -2.1886    3.4004   -0.3545 H       1  UNL1        0.0638
     24 H          -3.5225    0.9535   -0.3777 H       1  UNL1        0.1659
     25 H          -4.1881   -1.8094   -0.2962 H       1  UNL1        0.0851
     26 H          -0.8530   -4.2212    0.0991 H       1  UNL1        0.0830
     27 H           0.7231   -2.2964    0.1430 H       1  UNL1        0.0639
@<TRIPOS>BOND
     1     1     2   ar
     2     2     3   ar
     3     3     4    1
     4     4     5   ar
     5     5     6   ar
     6     6     7   ar
     7     7     8   ar
     8     3     9   ar
     9     9    10   ar
    10    10    11   ar
    11    10    12   ar
    12    12    13   ar
    13    13    14   ar
    14    14    15   ar
    15    15    16   ar
    16    16    17   ar
    17    17    18   ar
    18    11     1   ar
    19    18    13   ar
    20     8     4   ar
    21    18     9   ar
    22     1    19    1
    23     2    20    1
    24     5    21    1
    25     7    22    1
    26    11    23    1
    27    12    24    1
    28    14    25    1
    29    16    26    1
    30    17    27    1
