@<TRIPOS>MOLECULE
*****
 26 29 0 0 0
SMALL
GASTEIGER

@<TRIPOS>ATOM
      1 C          -0.5507    3.3216   -0.3145 C.ar    1  UNL1       -0.0576
      2 C          -1.4663    2.2791   -0.1688 C.ar    1  UNL1       -0.0517
      3 C          -1.0333    0.9465   -0.0342 C.ar    1  UNL1        0.0122
      4 C          -2.0046   -0.1069    0.1600 C.ar    1  UNL1        0.0788
      5 C          -2.0795   -0.8653    1.3129 C.ar    1  UNL1        0.0031
      6 S          -3.3781   -1.9803    1.1904 S.2     1  UNL1       -0.0833
      7 C          -3.7523   -1.3410   -0.3569 C.ar    1  UNL1        0.0654
      8 N          -2.9808   -0.3661   -0.7846 N.ar    1  UNL1       -0.2474
      9 C           0.3496    0.6578   -0.0888 C.ar    1  UNL1        0.0387
     10 C           1.2215    1.7366   -0.2248 C.ar    1  UNL1        0.1389
     11 C           0.8222    3.0689   -0.3342 C.ar    1  UNL1       -0.0186
     12 O           2.5137    1.3197   -0.2380 O.2     1  UNL1       -0.4368
     13 C           2.5013   -0.0356   -0.1419 C.ar    1  UNL1        0.2284
     14 N           3.6288   -0.7710   -0.1380 N.ar    1  UNL1       -0.2205
     15 C           3.3992   -2.0980   -0.0616 C.ar    1  UNL1        0.0314
     16 C           2.1507   -2.6997    0.0065 C.ar    1  UNL1       -0.0428
     17 C           1.0100   -1.8961    0.0043 C.ar    1  UNL1       -0.0474
     18 C           1.1885   -0.5020   -0.0627 C.ar    1  UNL1        0.0482
     19 H          -0.9098    4.3440   -0.4120 H       1  UNL1        0.0619
     20 H          -2.5322    2.5024   -0.1543 H       1  UNL1        0.0624
     21 H          -1.4553   -0.8228    2.1945 H       1  UNL1        0.0715
     22 H          -4.5806   -1.7205   -0.9410 H       1  UNL1        0.0907
     23 H           1.5502    3.8648   -0.4431 H       1  UNL1        0.0654
     24 H           4.2992   -2.7097   -0.0611 H       1  UNL1        0.0831
     25 H           2.0651   -3.7806    0.0549 H       1  UNL1        0.0633
     26 H           0.0235   -2.3456    0.0374 H       1  UNL1        0.0626
@<TRIPOS>BOND
     1     1     2   ar
     2     2     3   ar
     3     3     4    1
     4     4     5   ar
     5     5     6   ar
     6     6     7   ar
     7     7     8   ar
     8     3     9   ar
     9     9    10   ar
    10    10    11   ar
    11    10    12   ar
    12    12    13   ar
    13    13    14   ar
    14    14    15   ar
    15    15    16   ar
    16    16    17   ar
    17    17    18   ar
    18    11     1   ar
    19    18    13   ar
    20     8     4   ar
    21    18     9   ar
    22     1    19    1
    23     2    20    1
    24     5    21    1
    25     7    22    1
    26    11    23    1
    27    15    24    1
    28    16    25    1
    29    17    26    1
