@<TRIPOS>MOLECULE
*****
 45 52 0 0 0
SMALL
GASTEIGER

@<TRIPOS>ATOM
      1 SI         -1.5760    3.8524    1.4197 Si      1  UNL1        0.0000
      2 C          -3.2219    3.0833    1.0063 C.2     1  UNL1        0.0000
      3 C          -3.0823    1.8230    0.5445 C.ar    1  UNL1        0.0000
      4 C          -4.1840    0.9599    0.1302 C.ar    1  UNL1        0.0000
      5 C          -5.6135    1.2981    0.1471 C.2     1  UNL1        0.0000
      6 C          -6.4513    0.3403   -0.2834 C.2     1  UNL1        0.0000
      7 SI         -5.5042   -1.1844   -0.7903 Si      1  UNL1        0.0000
      8 C          -3.9070   -0.2950   -0.3262 C.ar    1  UNL1        0.0000
      9 C          -2.5295   -0.8361   -0.4218 C.ar    1  UNL1        0.0000
     10 C          -2.2231   -2.1512   -0.8982 C.ar    1  UNL1        0.0000
     11 N          -3.0747   -3.1055   -1.3340 N.ar    1  UNL1        0.0000
     12 S          -2.1739   -4.4435   -1.7695 S.2     1  UNL1        0.0000
     13 N          -0.6311   -3.8942   -1.4302 N.ar    1  UNL1        0.0000
     14 C          -0.8613   -2.6703   -0.9816 C.ar    1  UNL1        0.0000
     15 C           0.1886   -1.8166   -0.5662 C.ar    1  UNL1        0.0000
     16 C           1.5639   -2.0449   -0.5297 C.ar    1  UNL1        0.0000
     17 C           2.0902   -0.8639   -0.0376 C.ar    1  UNL1        0.0000
     18 O           1.0786    0.0285    0.2265 O.2     1  UNL1        0.0000
     19 C          -0.1161   -0.5587   -0.1106 C.ar    1  UNL1        0.0000
     20 C          -1.4135   -0.0244   -0.0201 C.ar    1  UNL1        0.0000
     21 C          -1.6767    1.3457    0.4752 C.ar    1  UNL1        0.0000
     22 C          -0.7692    2.2578    0.8839 C.2     1  UNL1        0.0000
     23 C           3.4204   -0.3879    0.2742 C.ar    1  UNL1        0.0000
     24 C           3.7023    0.4364    1.3945 C.ar    1  UNL1        0.0000
     25 C           5.0105    0.8998    1.7459 C.ar    1  UNL1        0.0000
     26 C           6.1746    0.5930    1.0128 C.ar    1  UNL1        0.0000
     27 C           5.8970   -0.2048   -0.0973 C.ar    1  UNL1        0.0000
     28 C           6.8806   -0.6108   -0.9649 C.ar    1  UNL1        0.0000
     29 S           6.2302   -1.5504   -2.2455 S.2     1  UNL1        0.0000
     30 C           4.6273   -1.4070   -1.6359 C.ar    1  UNL1        0.0000
     31 C           4.5809   -0.6831   -0.4659 C.ar    1  UNL1        0.0000
     32 H          -1.2416    4.9893    0.5287 H       1  UNL1        0.0000
     33 H          -1.4186    4.1087    2.8717 H       1  UNL1        0.0000
     34 H          -4.1352    3.6388    1.1415 H       1  UNL1        0.0000
     35 H          -5.9572    2.2660    0.4889 H       1  UNL1        0.0000
     36 H          -7.5262    0.3973   -0.3459 H       1  UNL1        0.0000
     37 H          -5.8276   -2.3241    0.1050 H       1  UNL1        0.0000
     38 H          -5.6437   -1.4275   -2.2486 H       1  UNL1        0.0000
     39 H           2.1065   -2.9389   -0.8022 H       1  UNL1        0.0000
     40 H           0.3030    2.1652    0.9254 H       1  UNL1        0.0000
     41 H           2.8750    0.7327    2.0421 H       1  UNL1        0.0000
     42 H           5.1084    1.5250    2.6342 H       1  UNL1        0.0000
     43 H           7.1551    0.9543    1.2940 H       1  UNL1        0.0000
     44 H           7.9421   -0.4071   -0.9312 H       1  UNL1        0.0000
     45 H           3.8242   -1.8653   -2.1938 H       1  UNL1        0.0000
@<TRIPOS>BOND
     1     1     2    1
     2     2     3    2
     3     3     4   ar
     4     4     5    1
     5     5     6    2
     6     6     7    1
     7     7     8    1
     8     8     9   ar
     9     9    10   ar
    10    10    11   ar
    11    11    12   ar
    12    12    13   ar
    13    13    14   ar
    14    14    15   ar
    15    15    16   ar
    16    16    17   ar
    17    17    18   ar
    18    18    19   ar
    19    19    20   ar
    20    20    21   ar
    21    21    22    2
    22    17    23    1
    23    23    24   ar
    24    24    25   ar
    25    25    26   ar
    26    26    27   ar
    27    27    28   ar
    28    28    29   ar
    29    29    30   ar
    30    30    31   ar
    31    22     1    1
    32    31    23   ar
    33    21     3   ar
    34    31    27   ar
    35     8     4   ar
    36    20     9   ar
    37    14    10   ar
    38    19    15   ar
    39     1    32    1
    40     1    33    1
    41     2    34    1
    42     5    35    1
    43     6    36    1
    44     7    37    1
    45     7    38    1
    46    16    39    1
    47    22    40    1
    48    24    41    1
    49    25    42    1
    50    26    43    1
    51    28    44    1
    52    30    45    1
