@<TRIPOS>MOLECULE
*****
 26 29 0 0 0
SMALL
GASTEIGER

@<TRIPOS>ATOM
      1 C          -2.1553   -2.7158    0.0736 C.ar    1  UNL1       -0.0601
      2 C          -2.3954   -1.3535    0.0170 C.ar    1  UNL1       -0.0519
      3 C          -1.3259   -0.4417   -0.0020 C.ar    1  UNL1        0.0097
      4 C          -1.6252    0.9709   -0.0860 C.ar    1  UNL1        0.0787
      5 C          -1.8901    1.6080   -1.2831 C.ar    1  UNL1        0.0031
      6 S          -2.2450    3.2614   -0.9901 S.2     1  UNL1       -0.0833
      7 C          -2.0308    2.9881    0.6905 C.ar    1  UNL1        0.0654
      8 N          -1.7048    1.7639    1.0430 N.ar    1  UNL1       -0.2474
      9 C           0.0291   -0.8879    0.0527 C.ar    1  UNL1        0.0076
     10 C           0.2269   -2.2763    0.0993 C.ar    1  UNL1        0.0226
     11 C          -0.8474   -3.1923    0.1101 C.ar    1  UNL1       -0.0473
     12 S           1.8935   -2.6927    0.1356 S.2     1  UNL1       -0.0687
     13 C           2.3776   -1.0714    0.1046 C.ar    1  UNL1        0.1093
     14 N           3.6925   -0.7628    0.1173 N.ar    1  UNL1       -0.2478
     15 C           3.9530    0.5567    0.1033 C.ar    1  UNL1        0.0289
     16 C           3.0002    1.5551    0.0764 C.ar    1  UNL1       -0.0429
     17 C           1.6560    1.1898    0.0593 C.ar    1  UNL1       -0.0500
     18 C           1.3079   -0.1832    0.0693 C.ar    1  UNL1        0.0160
     19 H          -2.9869   -3.4161    0.0906 H       1  UNL1        0.0618
     20 H          -3.4213   -0.9911   -0.0064 H       1  UNL1        0.0624
     21 H          -1.8949    1.1972   -2.2829 H       1  UNL1        0.0715
     22 H          -2.1558    3.7834    1.4138 H       1  UNL1        0.0907
     23 H          -0.6573   -4.2621    0.1518 H       1  UNL1        0.0629
     24 H           5.0108    0.8088    0.1178 H       1  UNL1        0.0830
     25 H           3.2921    2.5995    0.0733 H       1  UNL1        0.0633
     26 H           0.8968    1.9640    0.0512 H       1  UNL1        0.0625
@<TRIPOS>BOND
     1     1     2   ar
     2     2     3   ar
     3     3     4    1
     4     4     5   ar
     5     5     6   ar
     6     6     7   ar
     7     7     8   ar
     8     3     9   ar
     9     9    10   ar
    10    10    11   ar
    11    10    12   ar
    12    12    13   ar
    13    13    14   ar
    14    14    15   ar
    15    15    16   ar
    16    16    17   ar
    17    17    18   ar
    18    11     1   ar
    19    18    13   ar
    20     8     4   ar
    21    18     9   ar
    22     1    19    1
    23     2    20    1
    24     5    21    1
    25     7    22    1
    26    11    23    1
    27    15    24    1
    28    16    25    1
    29    17    26    1
