@<TRIPOS>MOLECULE
*****
 26 29 0 0 0
SMALL
GASTEIGER

@<TRIPOS>ATOM
      1 C           0.5587    3.2138    0.5460 C.ar    1  UNL1       -0.0591
      2 C           1.5401    2.2408    0.3927 C.ar    1  UNL1       -0.0502
      3 C           1.2001    0.8924    0.1595 C.ar    1  UNL1        0.0322
      4 C           2.2541   -0.0974    0.0456 C.ar    1  UNL1        0.2025
      5 N           2.2600   -1.2724    0.7663 N.ar    1  UNL1       -0.1941
      6 C           3.4072   -1.8015    0.4258 C.ar    1  UNL1        0.2147
      7 O           4.1212   -1.0518   -0.4480 O.2     1  UNL1       -0.3411
      8 N           3.3623    0.0916   -0.6933 N.ar    1  UNL1       -0.0564
      9 C          -0.1682    0.5249    0.0525 C.ar    1  UNL1        0.0183
     10 C          -1.1216    1.5378    0.2224 C.ar    1  UNL1        0.0482
     11 C          -0.7910    2.8763    0.4715 C.ar    1  UNL1       -0.0377
     12 N          -2.3641    0.9641    0.0989 N.ar    1  UNL1       -0.3529
     13 C          -2.2633   -0.3725   -0.1844 C.ar    1  UNL1        0.0658
     14 C          -3.2590   -1.3158   -0.4071 C.ar    1  UNL1        0.0514
     15 N          -2.9116   -2.5895   -0.6885 N.ar    1  UNL1       -0.2612
     16 C          -1.6017   -2.9061   -0.7480 C.ar    1  UNL1        0.0283
     17 C          -0.5614   -2.0128   -0.5359 C.ar    1  UNL1       -0.0338
     18 C          -0.9044   -0.6846   -0.2305 C.ar    1  UNL1        0.0110
     19 H           0.8470    4.2461    0.7311 H       1  UNL1        0.0618
     20 H           2.5872    2.5308    0.4665 H       1  UNL1        0.0625
     21 H           3.8471   -2.7343    0.7439 H       1  UNL1        0.1283
     22 H          -1.5573    3.6356    0.5963 H       1  UNL1        0.0638
     23 H          -3.2349    1.4679    0.1847 H       1  UNL1        0.1659
     24 H          -4.3180   -1.0911   -0.3730 H       1  UNL1        0.0851
     25 H          -1.3929   -3.9462   -0.9838 H       1  UNL1        0.0830
     26 H           0.4644   -2.3464   -0.6111 H       1  UNL1        0.0639
@<TRIPOS>BOND
     1     1     2   ar
     2     2     3   ar
     3     3     4    1
     4     4     5   ar
     5     5     6   ar
     6     6     7   ar
     7     7     8   ar
     8     3     9   ar
     9     9    10   ar
    10    10    11   ar
    11    10    12   ar
    12    12    13   ar
    13    13    14   ar
    14    14    15   ar
    15    15    16   ar
    16    16    17   ar
    17    17    18   ar
    18    11     1   ar
    19    18    13   ar
    20     8     4   ar
    21    18     9   ar
    22     1    19    1
    23     2    20    1
    24     6    21    1
    25    11    22    1
    26    12    23    1
    27    14    24    1
    28    16    25    1
    29    17    26    1
