@<TRIPOS>MOLECULE
*****
 25 28 0 0 0
SMALL
GASTEIGER

@<TRIPOS>ATOM
      1 C           1.1411   -3.1990    0.2809 C.ar    1  UNL1       -0.0576
      2 C           1.8819   -2.0254    0.4162 C.ar    1  UNL1       -0.0501
      3 C           1.2739   -0.7534    0.3203 C.ar    1  UNL1        0.0338
      4 C           2.0854    0.4442    0.4285 C.ar    1  UNL1        0.2025
      5 N           1.9331    1.5319   -0.4028 N.ar    1  UNL1       -0.1941
      6 C           2.8985    2.3222   -0.0078 C.ar    1  UNL1        0.2147
      7 O           3.6430    1.8166    1.0047 O.2     1  UNL1       -0.3411
      8 N           3.1111    0.5604    1.2907 N.ar    1  UNL1       -0.0564
      9 C          -0.1244   -0.6769    0.1069 C.ar    1  UNL1        0.0403
     10 C          -0.8143   -1.8824   -0.0271 C.ar    1  UNL1        0.1389
     11 C          -0.2315   -3.1477    0.0472 C.ar    1  UNL1       -0.0186
     12 O          -2.1376   -1.6707   -0.2365 O.2     1  UNL1       -0.4368
     13 C          -2.3397   -0.3289   -0.2191 C.ar    1  UNL1        0.2284
     14 N          -3.5589    0.2173   -0.3848 N.ar    1  UNL1       -0.2205
     15 C          -3.5544    1.5636   -0.3140 C.ar    1  UNL1        0.0314
     16 C          -2.4385    2.3553   -0.0893 C.ar    1  UNL1       -0.0428
     17 C          -1.1958    1.7422    0.0770 C.ar    1  UNL1       -0.0474
     18 C          -1.1334    0.3381    0.0017 C.ar    1  UNL1        0.0483
     19 H           1.6387   -4.1638    0.3537 H       1  UNL1        0.0619
     20 H           2.9555   -2.1007    0.5880 H       1  UNL1        0.0625
     21 H           3.1719    3.2995   -0.3754 H       1  UNL1        0.1283
     22 H          -0.8285   -4.0459   -0.0643 H       1  UNL1        0.0654
     23 H          -4.5312    2.0238   -0.4472 H       1  UNL1        0.0831
     24 H          -2.5320    3.4353   -0.0429 H       1  UNL1        0.0633
     25 H          -0.3138    2.3443    0.2610 H       1  UNL1        0.0626
@<TRIPOS>BOND
     1     1     2   ar
     2     2     3   ar
     3     3     4    1
     4     4     5   ar
     5     5     6   ar
     6     6     7   ar
     7     7     8   ar
     8     3     9   ar
     9     9    10   ar
    10    10    11   ar
    11    10    12   ar
    12    12    13   ar
    13    13    14   ar
    14    14    15   ar
    15    15    16   ar
    16    16    17   ar
    17    17    18   ar
    18    11     1   ar
    19    18    13   ar
    20     8     4   ar
    21    18     9   ar
    22     1    19    1
    23     2    20    1
    24     6    21    1
    25    11    22    1
    26    15    23    1
    27    16    24    1
    28    17    25    1
