@<TRIPOS>MOLECULE
*****
 25 28 0 0 0
SMALL
GASTEIGER

@<TRIPOS>ATOM
      1 C          -2.3544   -2.5399   -0.2674 C.ar    1  UNL1       -0.0600
      2 C          -2.5123   -1.1703   -0.3891 C.ar    1  UNL1       -0.0503
      3 C          -1.4118   -0.3023   -0.2476 C.ar    1  UNL1        0.0313
      4 C          -1.6485    1.1251   -0.3267 C.ar    1  UNL1        0.2024
      5 N          -1.3891    1.9770    0.7243 N.ar    1  UNL1       -0.1941
      6 C          -1.8300    3.1212    0.2668 C.ar    1  UNL1        0.2147
      7 O          -2.3392    3.0529   -0.9877 O.2     1  UNL1       -0.3411
      8 N          -2.2309    1.7189   -1.3822 N.ar    1  UNL1       -0.0564
      9 C          -0.0994   -0.8140   -0.0043 C.ar    1  UNL1        0.0092
     10 C           0.0110   -2.2075    0.1287 C.ar    1  UNL1        0.0226
     11 C          -1.0979   -3.0719    0.0022 C.ar    1  UNL1       -0.0473
     12 S           1.6212   -2.7053    0.4608 S.2     1  UNL1       -0.0687
     13 C           2.2078   -1.1211    0.3811 C.ar    1  UNL1        0.1093
     14 N           3.5257   -0.8861    0.5596 N.ar    1  UNL1       -0.2478
     15 C           3.8801    0.4060    0.4492 C.ar    1  UNL1        0.0289
     16 C           3.0155    1.4449    0.1718 C.ar    1  UNL1       -0.0429
     17 C           1.6638    1.1552   -0.0033 C.ar    1  UNL1       -0.0500
     18 C           1.2151   -0.1836    0.1133 C.ar    1  UNL1        0.0160
     19 H          -3.2119   -3.2003   -0.3721 H       1  UNL1        0.0618
     20 H          -3.5043   -0.7648   -0.5835 H       1  UNL1        0.0625
     21 H          -1.8392    4.0880    0.7467 H       1  UNL1        0.1283
     22 H          -0.9721   -4.1469    0.1088 H       1  UNL1        0.0629
     23 H           4.9407    0.5984    0.5932 H       1  UNL1        0.0830
     24 H           3.3809    2.4627    0.0907 H       1  UNL1        0.0633
     25 H           0.9793    1.9635   -0.2333 H       1  UNL1        0.0625
@<TRIPOS>BOND
     1     1     2   ar
     2     2     3   ar
     3     3     4    1
     4     4     5   ar
     5     5     6   ar
     6     6     7   ar
     7     7     8   ar
     8     3     9   ar
     9     9    10   ar
    10    10    11   ar
    11    10    12   ar
    12    12    13   ar
    13    13    14   ar
    14    14    15   ar
    15    15    16   ar
    16    16    17   ar
    17    17    18   ar
    18    11     1   ar
    19    18    13   ar
    20     8     4   ar
    21    18     9   ar
    22     1    19    1
    23     2    20    1
    24     6    21    1
    25    11    22    1
    26    15    23    1
    27    16    24    1
    28    17    25    1
