@<TRIPOS>MOLECULE
*****
 25 27 0 0 0
SMALL
GASTEIGER

@<TRIPOS>ATOM
      1 C           4.7799   -0.4365   -0.3873 C.ar    1  UNL1        0.0283
      2 C           3.5186   -0.8684   -0.7597 C.ar    1  UNL1       -0.0313
      3 C           2.4010   -0.2085   -0.2395 C.ar    1  UNL1        0.0413
      4 C           1.0658   -0.6472   -0.6186 C.ar    1  UNL1        0.2488
      5 N           0.6925   -1.6237   -1.4207 N.ar    1  UNL1       -0.1070
      6 N          -0.6870   -1.6143   -1.4351 N.ar    1  UNL1       -0.1070
      7 C          -1.0636   -0.6327   -0.6409 C.ar    1  UNL1        0.2488
      8 C          -2.4003   -0.1758   -0.2897 C.ar    1  UNL1        0.0413
      9 C          -3.5157   -0.8205   -0.8332 C.ar    1  UNL1       -0.0313
     10 C          -4.7786   -0.3714   -0.4872 C.ar    1  UNL1        0.0283
     11 N          -5.0001    0.6615    0.3514 N.ar    1  UNL1       -0.2632
     12 C          -3.9142    1.2726    0.8670 C.ar    1  UNL1        0.0283
     13 C          -2.6120    0.8968    0.5814 C.ar    1  UNL1       -0.0313
     14 O          -0.0001    0.0302   -0.0833 O.2     1  UNL1       -0.4158
     15 C           2.6090    0.8613    0.6360 C.ar    1  UNL1       -0.0313
     16 C           3.9099    1.2193    0.9488 C.ar    1  UNL1        0.0283
     17 N           4.9980    0.5934    0.4559 N.ar    1  UNL1       -0.2632
     18 H           5.6740   -0.9219   -0.7688 H       1  UNL1        0.0830
     19 H           3.4135   -1.7055   -1.4439 H       1  UNL1        0.0640
     20 H          -3.4077   -1.6591   -1.5152 H       1  UNL1        0.0640
     21 H          -5.6710   -0.8446   -0.8874 H       1  UNL1        0.0830
     22 H          -4.1247    2.1004    1.5386 H       1  UNL1        0.0830
     23 H          -1.7881    1.4371    1.0351 H       1  UNL1        0.0640
     24 H           1.7832    1.4128    1.0724 H       1  UNL1        0.0640
     25 H           4.1176    2.0443    1.6247 H       1  UNL1        0.0830
@<TRIPOS>BOND
     1     1     2   ar
     2     2     3   ar
     3     3     4    1
     4     4     5   ar
     5     5     6   ar
     6     6     7   ar
     7     7     8    1
     8     8     9   ar
     9     9    10   ar
    10    10    11   ar
    11    11    12   ar
    12    12    13   ar
    13     7    14   ar
    14     3    15   ar
    15    15    16   ar
    16    16    17   ar
    17    17     1   ar
    18    14     4   ar
    19    13     8   ar
    20     1    18    1
    21     2    19    1
    22     9    20    1
    23    10    21    1
    24    12    22    1
    25    13    23    1
    26    15    24    1
    27    16    25    1
