@<TRIPOS>MOLECULE
*****
 35 39 0 0 0
SMALL
GASTEIGER

@<TRIPOS>ATOM
      1 C          -0.7884    2.4791    0.5358 C.ar    1  UNL1       -0.0147
      2 C          -2.2033    2.5355    0.4578 C.ar    1  UNL1       -0.0152
      3 C          -2.6343    1.2458    0.2361 C.ar    1  UNL1        0.1372
      4 O          -1.5539    0.4188    0.1769 O.2     1  UNL1       -0.4542
      5 C          -0.4112    1.1555    0.3583 C.ar    1  UNL1        0.1444
      6 C           0.9020    0.5588    0.3482 C.ar    1  UNL1        0.0825
      7 S           2.3178    1.5017    0.5776 S.2     1  UNL1       -0.0803
      8 C           3.3962    0.1597    0.4402 C.ar    1  UNL1        0.0555
      9 C           4.8358    0.3144    0.5516 C.ar    1  UNL1        0.0475
     10 C           5.8183   -0.6621    0.4637 C.ar    1  UNL1        0.0430
     11 N           7.1304   -0.2422    0.6075 N.ar    1  UNL1       -0.2551
     12 C           7.1439    1.0544    0.8048 C.ar    1  UNL1        0.0653
     13 S           5.6212    1.8297    0.8292 S.2     1  UNL1       -0.0749
     14 C           2.6671   -0.9957    0.2205 C.ar    1  UNL1        0.1052
     15 N           3.2332   -2.2312    0.0680 N.ar    1  UNL1       -0.2507
     16 C           2.2941   -3.1920   -0.1350 C.ar    1  UNL1        0.0464
     17 C           0.9175   -2.9699   -0.1855 C.ar    1  UNL1        0.0464
     18 N           0.3214   -1.7610   -0.0388 N.ar    1  UNL1       -0.2507
     19 C           1.2356   -0.7665    0.1678 C.ar    1  UNL1        0.1075
     20 C          -3.9336    0.6118    0.0607 C.ar    1  UNL1        0.0353
     21 C          -5.1206    1.3507    0.1001 C.ar    1  UNL1       -0.0482
     22 C          -6.3494    0.7130   -0.0716 C.ar    1  UNL1       -0.0429
     23 C          -6.3581   -0.6557   -0.2794 C.ar    1  UNL1        0.0276
     24 N          -5.2420   -1.4104   -0.3256 N.ar    1  UNL1       -0.2626
     25 C          -4.0612   -0.7604   -0.1550 C.ar    1  UNL1        0.0382
     26 H          -0.1232    3.3150    0.7030 H       1  UNL1        0.0656
     27 H          -2.8244    3.4146    0.5531 H       1  UNL1        0.0656
     28 H           5.6413   -1.7172    0.2930 H       1  UNL1        0.0841
     29 H           8.0640    1.6066    0.9447 H       1  UNL1        0.0907
     30 H           2.6882   -4.1965   -0.2631 H       1  UNL1        0.0845
     31 H           0.2349   -3.7984   -0.3528 H       1  UNL1        0.0845
     32 H          -5.1051    2.4244    0.2637 H       1  UNL1        0.0626
     33 H          -7.2777    1.2725   -0.0435 H       1  UNL1        0.0633
     34 H          -7.2898   -1.1965   -0.4183 H       1  UNL1        0.0829
     35 H          -3.1867   -1.4066   -0.1994 H       1  UNL1        0.0837
@<TRIPOS>BOND
     1     1     2   ar
     2     2     3   ar
     3     3     4   ar
     4     4     5   ar
     5     5     6    1
     6     6     7   ar
     7     7     8   ar
     8     8     9    1
     9     9    10   ar
    10    10    11   ar
    11    11    12   ar
    12    12    13   ar
    13     8    14   ar
    14    14    15   ar
    15    15    16   ar
    16    16    17   ar
    17    17    18   ar
    18    18    19   ar
    19     3    20    1
    20    20    21   ar
    21    21    22   ar
    22    22    23   ar
    23    23    24   ar
    24    24    25   ar
    25     5     1   ar
    26    19     6   ar
    27    25    20   ar
    28    13     9   ar
    29    19    14   ar
    30     1    26    1
    31     2    27    1
    32    10    28    1
    33    12    29    1
    34    16    30    1
    35    17    31    1
    36    21    32    1
    37    22    33    1
    38    23    34    1
    39    25    35    1
