@<TRIPOS>MOLECULE
*****
 43 48 0 0 0
SMALL
GASTEIGER

@<TRIPOS>ATOM
      1 C          -0.9554   -1.2227   -1.3302 C.ar    1  UNL1       -0.0458
      2 C          -2.3702   -1.2586   -1.5094 C.ar    1  UNL1       -0.0463
      3 C          -3.0451   -0.6981   -0.4472 C.ar    1  UNL1        0.0206
      4 S          -1.9655   -0.1665    0.7650 S.2     1  UNL1       -0.0877
      5 C          -0.5753   -0.6489   -0.1281 C.ar    1  UNL1        0.0265
      6 C           0.7670   -0.4474    0.3848 C.ar    1  UNL1        0.0265
      7 C           1.1461    0.1175    1.5912 C.ar    1  UNL1       -0.0458
      8 C           2.5608    0.1583    1.7691 C.ar    1  UNL1       -0.0463
      9 C           3.2390   -0.3740    0.6936 C.ar    1  UNL1        0.0205
     10 S           2.1577   -0.9232   -0.5103 S.2     1  UNL1       -0.0877
     11 C           4.6709   -0.5105    0.4921 C.ar    1  UNL1       -0.0031
     12 C           5.3359   -1.7552    0.3649 C.ar    1  UNL1       -0.0529
     13 C           6.7512   -1.8903    0.1904 C.ar    1  UNL1       -0.0606
     14 C           7.6452   -0.8000    0.1258 C.ar    1  UNL1       -0.0535
     15 C           6.9860    0.4238    0.2481 C.ar    1  UNL1       -0.0103
     16 C           7.6518    1.6236    0.2070 C.ar    1  UNL1       -0.0166
     17 S           6.5645    2.9443    0.3679 S.2     1  UNL1       -0.1039
     18 C           5.1996    1.9040    0.4893 C.ar    1  UNL1       -0.0160
     19 C           5.5600    0.5772    0.4251 C.ar    1  UNL1       -0.0027
     20 C          -4.4749   -0.5681   -0.2557 C.ar    1  UNL1       -0.0022
     21 C          -5.3548   -1.6610   -0.0581 C.ar    1  UNL1       -0.0529
     22 C          -6.7779   -1.5252    0.1153 C.ar    1  UNL1       -0.0605
     23 C          -7.4678   -0.2901    0.1001 C.ar    1  UNL1       -0.0526
     24 C          -6.5849    0.7621   -0.1077 C.ar    1  UNL1        0.0000
     25 C          -6.9201    2.0884   -0.1921 C.ar    1  UNL1        0.0094
     26 N          -5.7493    2.7826   -0.4161 N.ar    1  UNL1       -0.3659
     27 C          -4.6801    1.9125   -0.4785 C.ar    1  UNL1        0.0100
     28 C          -5.1714    0.6450   -0.2777 C.ar    1  UNL1        0.0076
     29 H          -0.2567   -1.6080   -2.0629 H       1  UNL1        0.0629
     30 H          -2.8659   -1.6681   -2.3815 H       1  UNL1        0.0629
     31 H           0.4458    0.4901    2.3291 H       1  UNL1        0.0629
     32 H           3.0532    0.5573    2.6482 H       1  UNL1        0.0629
     33 H           4.7444   -2.6709    0.4088 H       1  UNL1        0.0624
     34 H           7.1593   -2.8982    0.1041 H       1  UNL1        0.0618
     35 H           8.7117   -0.9252   -0.0075 H       1  UNL1        0.0624
     36 H           8.7104    1.8091    0.0879 H       1  UNL1        0.0699
     37 H           4.2156    2.3389    0.5966 H       1  UNL1        0.0700
     38 H          -4.9364   -2.6675   -0.0262 H       1  UNL1        0.0624
     39 H          -7.3587   -2.4357    0.2676 H       1  UNL1        0.0618
     40 H          -8.5366   -0.2011    0.2289 H       1  UNL1        0.0624
     41 H          -7.8654    2.6083   -0.1199 H       1  UNL1        0.0813
     42 H          -5.6832    3.7863   -0.5243 H       1  UNL1        0.1648
     43 H          -3.6805    2.2853   -0.6570 H       1  UNL1        0.0813
@<TRIPOS>BOND
     1     1     2   ar
     2     2     3   ar
     3     3     4   ar
     4     4     5   ar
     5     5     6    1
     6     6     7   ar
     7     7     8   ar
     8     8     9   ar
     9     9    10   ar
    10     9    11    1
    11    11    12   ar
    12    12    13   ar
    13    13    14   ar
    14    14    15   ar
    15    15    16   ar
    16    16    17   ar
    17    17    18   ar
    18    18    19   ar
    19     3    20    1
    20    20    21   ar
    21    21    22   ar
    22    22    23   ar
    23    23    24   ar
    24    24    25   ar
    25    25    26   ar
    26    26    27   ar
    27    27    28   ar
    28     5     1   ar
    29    10     6   ar
    30    19    11   ar
    31    28    20   ar
    32    19    15   ar
    33    28    24   ar
    34     1    29    1
    35     2    30    1
    36     7    31    1
    37     8    32    1
    38    12    33    1
    39    13    34    1
    40    14    35    1
    41    16    36    1
    42    18    37    1
    43    21    38    1
    44    22    39    1
    45    23    40    1
    46    25    41    1
    47    26    42    1
    48    27    43    1
