@<TRIPOS>MOLECULE
*****
 41 46 0 0 0
SMALL
GASTEIGER

@<TRIPOS>ATOM
      1 C           0.3497    0.5275    1.6759 C.ar    1  UNL1       -0.0443
      2 C           1.7669    0.3732    1.7316 C.ar    1  UNL1       -0.0463
      3 C           2.2392   -0.4505    0.7326 C.ar    1  UNL1        0.0206
      4 S           0.9722   -1.0328   -0.2550 S.2     1  UNL1       -0.0862
      5 C          -0.2296   -0.1836    0.6377 C.ar    1  UNL1        0.0449
      6 C          -1.6264   -0.2687    0.2701 C.ar    1  UNL1        0.1154
      7 N          -2.0571   -1.0036   -0.7336 N.ar    1  UNL1       -0.2461
      8 C          -3.4300   -0.8905   -0.8526 C.ar    1  UNL1        0.0448
      9 C          -4.0620   -0.0669    0.0621 C.ar    1  UNL1        0.0597
     10 S          -2.8583    0.5848    1.1109 S.2     1  UNL1       -0.0651
     11 C          -5.4674    0.2817    0.2324 C.ar    1  UNL1        0.1071
     12 N          -5.8387    1.0001    1.3441 N.ar    1  UNL1       -0.2521
     13 C          -7.1411    1.3581    1.5661 C.ar    1  UNL1        0.0305
     14 C          -8.2378    1.0769    0.7612 C.ar    1  UNL1       -0.0153
     15 C          -7.9105    0.3427   -0.3934 C.ar    1  UNL1        0.1034
     16 N          -8.7865   -0.0524   -1.3305 N.ar    1  UNL1       -0.1907
     17 S          -7.9145   -0.8727   -2.4778 S.2     1  UNL1        0.1165
     18 N          -6.3889   -0.7671   -1.8374 N.ar    1  UNL1       -0.1886
     19 C          -6.4901   -0.0776   -0.6853 C.ar    1  UNL1        0.1263
     20 C           3.6220   -0.8514    0.4549 C.ar    1  UNL1       -0.0036
     21 C           4.0489   -2.1044    0.9257 C.ar    1  UNL1       -0.0529
     22 C           5.3555   -2.5322    0.7173 C.ar    1  UNL1       -0.0606
     23 C           6.2524   -1.7105    0.0395 C.ar    1  UNL1       -0.0540
     24 C           5.8581   -0.4528   -0.4428 C.ar    1  UNL1       -0.0173
     25 C           6.7787    0.3605   -1.1249 C.ar    1  UNL1       -0.0540
     26 C           6.4075    1.6114   -1.6158 C.ar    1  UNL1       -0.0612
     27 C           5.1086    2.0659   -1.4332 C.ar    1  UNL1       -0.0611
     28 C           4.1816    1.2699   -0.7569 C.ar    1  UNL1       -0.0534
     29 C           4.5281   -0.0031   -0.2422 C.ar    1  UNL1       -0.0097
     30 H          -0.2080    1.1377    2.3763 H       1  UNL1        0.0630
     31 H           2.4077    0.8448    2.4673 H       1  UNL1        0.0629
     32 H          -3.9169   -1.4500   -1.6425 H       1  UNL1        0.0842
     33 H          -7.2851    1.9243    2.4866 H       1  UNL1        0.0830
     34 H          -9.2445    1.3913    0.9960 H       1  UNL1        0.0655
     35 H           3.3568   -2.7526    1.4598 H       1  UNL1        0.0624
     36 H           5.6756   -3.5042    1.0830 H       1  UNL1        0.0618
     37 H           7.2705   -2.0631   -0.1131 H       1  UNL1        0.0624
     38 H           7.8006    0.0215   -1.2818 H       1  UNL1        0.0624
     39 H           7.1320    2.2263   -2.1429 H       1  UNL1        0.0618
     40 H           4.8101    3.0373   -1.8186 H       1  UNL1        0.0618
     41 H           3.1707    1.6551   -0.6405 H       1  UNL1        0.0624
@<TRIPOS>BOND
     1     1     2   ar
     2     2     3   ar
     3     3     4   ar
     4     4     5   ar
     5     5     6    1
     6     6     7   ar
     7     7     8   ar
     8     8     9   ar
     9     9    10   ar
    10     9    11    1
    11    11    12   ar
    12    12    13   ar
    13    13    14   ar
    14    14    15   ar
    15    15    16   ar
    16    16    17   ar
    17    17    18   ar
    18    18    19   ar
    19     3    20    1
    20    20    21   ar
    21    21    22   ar
    22    22    23   ar
    23    23    24   ar
    24    24    25   ar
    25    25    26   ar
    26    26    27   ar
    27    27    28   ar
    28    28    29   ar
    29     5     1   ar
    30    10     6   ar
    31    19    11   ar
    32    29    20   ar
    33    19    15   ar
    34    29    24   ar
    35     1    30    1
    36     2    31    1
    37     8    32    1
    38    13    33    1
    39    14    34    1
    40    21    35    1
    41    22    36    1
    42    23    37    1
    43    25    38    1
    44    26    39    1
    45    27    40    1
    46    28    41    1
