@<TRIPOS>MOLECULE
*****
 45 51 0 0 0
SMALL
GASTEIGER

@<TRIPOS>ATOM
      1 C           3.3734   -1.5288    2.1564 C.ar    1  UNL1       -0.0458
      2 C           1.9480   -1.4896    2.1320 C.ar    1  UNL1       -0.0463
      3 C           1.4474   -0.9637    0.9563 C.ar    1  UNL1        0.0220
      4 S           2.7256   -0.5379   -0.1072 S.2     1  UNL1       -0.0876
      5 C           3.9384   -1.0277    0.9993 C.ar    1  UNL1        0.0286
      6 C           5.3431   -0.9291    0.6800 C.ar    1  UNL1        0.0533
      7 S           6.4160   -2.2323    1.0631 S.2     1  UNL1       -0.0918
      8 C           7.7786   -1.4318    0.4038 C.ar    1  UNL1        0.0038
      9 C           7.4410   -0.1982   -0.0865 C.ar    1  UNL1        0.0968
     10 N           8.3525    0.6411   -0.6524 N.ar    1  UNL1       -0.2514
     11 C           7.7590    1.8009   -1.0447 C.ar    1  UNL1        0.0464
     12 C           6.4015    2.1036   -0.8898 C.ar    1  UNL1        0.0464
     13 N           5.4743    1.2832   -0.3263 N.ar    1  UNL1       -0.2508
     14 C           6.0354    0.1018    0.0722 C.ar    1  UNL1        0.1044
     15 C           0.0567   -0.7594    0.5490 C.ar    1  UNL1        0.0169
     16 C          -0.4002    0.4120   -0.0918 C.ar    1  UNL1       -0.0508
     17 C          -1.7450    0.6146   -0.4797 C.ar    1  UNL1       -0.0512
     18 C          -2.7792   -0.3254   -0.2656 C.ar    1  UNL1        0.0110
     19 C          -4.1524   -0.0950   -0.6792 C.ar    1  UNL1       -0.0066
     20 C          -4.8910   -0.9378   -1.5565 C.ar    1  UNL1       -0.0533
     21 C          -6.2454   -0.6938   -1.9834 C.ar    1  UNL1       -0.0605
     22 C          -7.0156    0.4189   -1.5808 C.ar    1  UNL1       -0.0526
     23 C          -6.2856    1.2264   -0.7204 C.ar    1  UNL1       -0.0000
     24 C          -6.7386    2.3769   -0.1289 C.ar    1  UNL1        0.0094
     25 N          -5.7129    2.8500    0.6608 N.ar    1  UNL1       -0.3659
     26 C          -4.6171    2.0152    0.5744 C.ar    1  UNL1        0.0100
     27 C          -4.9421    0.9968   -0.2907 C.ar    1  UNL1        0.0072
     28 C          -2.3777   -1.5364    0.3747 C.ar    1  UNL1        0.1082
     29 N          -3.1677   -2.5822    0.6807 N.ar    1  UNL1       -0.1901
     30 S          -2.2148   -3.7185    1.4102 S.2     1  UNL1        0.1165
     31 N          -0.7481   -2.9553    1.3839 N.ar    1  UNL1       -0.1901
     32 C          -0.9320   -1.7581    0.7954 C.ar    1  UNL1        0.1086
     33 H           3.9492   -1.9048    2.9935 H       1  UNL1        0.0629
     34 H           1.3212   -1.8349    2.9461 H       1  UNL1        0.0629
     35 H           8.7538   -1.8963    0.4114 H       1  UNL1        0.0715
     36 H           8.4278    2.5207   -1.5086 H       1  UNL1        0.0845
     37 H           6.0143    3.0590   -1.2327 H       1  UNL1        0.0845
     38 H           0.3082    1.2154   -0.3000 H       1  UNL1        0.0625
     39 H          -1.9911    1.5537   -0.9799 H       1  UNL1        0.0624
     40 H          -4.4062   -1.8375   -1.9401 H       1  UNL1        0.0624
     41 H          -6.7013   -1.4194   -2.6578 H       1  UNL1        0.0618
     42 H          -8.0321    0.5911   -1.9022 H       1  UNL1        0.0624
     43 H          -7.6836    2.8999   -0.1805 H       1  UNL1        0.0813
     44 H          -5.7606    3.6834    1.2324 H       1  UNL1        0.1648
     45 H          -3.7250    2.2293    1.1464 H       1  UNL1        0.0813
@<TRIPOS>BOND
     1     1     2   ar
     2     2     3   ar
     3     3     4   ar
     4     4     5   ar
     5     5     6    1
     6     6     7   ar
     7     7     8   ar
     8     8     9   ar
     9     9    10   ar
    10    10    11   ar
    11    11    12   ar
    12    12    13   ar
    13    13    14   ar
    14     3    15    1
    15    15    16   ar
    16    16    17   ar
    17    17    18   ar
    18    18    19    1
    19    19    20   ar
    20    20    21   ar
    21    21    22   ar
    22    22    23   ar
    23    23    24   ar
    24    24    25   ar
    25    25    26   ar
    26    26    27   ar
    27    18    28   ar
    28    28    29   ar
    29    29    30   ar
    30    30    31   ar
    31    31    32   ar
    32     5     1   ar
    33    14     6   ar
    34    32    15   ar
    35    14     9   ar
    36    27    19   ar
    37    32    28   ar
    38    27    23   ar
    39     1    33    1
    40     2    34    1
    41     8    35    1
    42    11    36    1
    43    12    37    1
    44    16    38    1
    45    17    39    1
    46    20    40    1
    47    21    41    1
    48    22    42    1
    49    24    43    1
    50    25    44    1
    51    26    45    1
