@<TRIPOS>MOLECULE
*****
 41 45 0 0 0
SMALL
GASTEIGER

@<TRIPOS>ATOM
      1 C           6.7291   -0.0677   -0.2723 C.ar    1  UNL1        0.0295
      2 C           5.5568   -0.5086   -0.8686 C.ar    1  UNL1       -0.0196
      3 C           4.3876   -0.1371   -0.2087 C.ar    1  UNL1        0.0498
      4 N           3.0695   -0.3907   -0.5069 N.ar    1  UNL1       -0.3541
      5 C           2.2328    0.1736    0.4317 C.ar    1  UNL1        0.0475
      6 C           0.7746    0.0748    0.3618 C.ar    1  UNL1       -0.0011
      7 C          -0.0257    1.1549    0.7406 C.ar    1  UNL1       -0.0477
      8 C          -1.4292    1.0810    0.6753 C.ar    1  UNL1       -0.0254
      9 C          -2.0638   -0.0862    0.2042 C.ar    1  UNL1        0.0361
     10 C          -1.2549   -1.1855   -0.1492 C.ar    1  UNL1       -0.0254
     11 C           0.1479   -1.0935   -0.0795 C.ar    1  UNL1       -0.0477
     12 C          -1.8672   -2.4672   -0.6574 C.3     1  UNL1       -0.0245
     13 C          -3.3472   -2.5658   -0.3205 C.3     1  UNL1       -0.0332
     14 C          -4.0292   -1.2506   -0.6586 C.3     1  UNL1        0.0125
     15 N          -3.4625   -0.1740    0.1506 N.pl3   1  UNL1       -0.3294
     16 C          -4.2067    1.0835    0.1842 C.3     1  UNL1        0.0125
     17 C          -3.6931    1.9598    1.3145 C.3     1  UNL1       -0.0332
     18 C          -2.2311    2.2975    1.0654 C.3     1  UNL1       -0.0245
     19 C           3.0510    0.8157    1.3462 C.ar    1  UNL1       -0.0272
     20 C           4.4056    0.6222    0.9587 C.ar    1  UNL1        0.0183
     21 C           5.6426    1.0176    1.4812 C.ar    1  UNL1        0.0367
     22 N           6.7967    0.6682    0.8594 N.ar    1  UNL1       -0.2625
     23 H           7.6930   -0.3085   -0.7139 H       1  UNL1        0.0830
     24 H           5.5600   -1.0963   -1.7767 H       1  UNL1        0.0653
     25 H           2.7553   -0.9031   -1.3183 H       1  UNL1        0.1659
     26 H           0.4391    2.0777    1.0817 H       1  UNL1        0.0627
     27 H           0.7430   -1.9608   -0.3549 H       1  UNL1        0.0627
     28 H          -1.7341   -2.5027   -1.7458 H       1  UNL1        0.0314
     29 H          -1.3459   -3.3314   -0.2288 H       1  UNL1        0.0314
     30 H          -3.8040   -3.3910   -0.8776 H       1  UNL1        0.0283
     31 H          -3.4721   -2.7845    0.7480 H       1  UNL1        0.0283
     32 H          -3.9269   -1.0182   -1.7264 H       1  UNL1        0.0464
     33 H          -5.1008   -1.3456   -0.4473 H       1  UNL1        0.0464
     34 H          -5.2701    0.8778    0.3542 H       1  UNL1        0.0464
     35 H          -4.1251    1.5995   -0.7811 H       1  UNL1        0.0464
     36 H          -4.2830    2.8799    1.3871 H       1  UNL1        0.0283
     37 H          -3.7953    1.4299    2.2705 H       1  UNL1        0.0283
     38 H          -1.8114    2.7532    1.9700 H       1  UNL1        0.0314
     39 H          -2.1558    3.0328    0.2546 H       1  UNL1        0.0314
     40 H           2.7097    1.3620    2.2162 H       1  UNL1        0.0645
     41 H           5.7405    1.6081    2.3846 H       1  UNL1        0.0836
@<TRIPOS>BOND
     1     1     2   ar
     2     2     3   ar
     3     3     4   ar
     4     4     5   ar
     5     5     6    1
     6     6     7   ar
     7     7     8   ar
     8     8     9   ar
     9     9    10   ar
    10    10    11   ar
    11    10    12    1
    12    12    13    1
    13    13    14    1
    14    14    15    1
    15    15    16    1
    16    16    17    1
    17    17    18    1
    18     5    19   ar
    19    19    20   ar
    20    20    21   ar
    21    21    22   ar
    22    22     1   ar
    23    20     3   ar
    24    11     6   ar
    25    18     8    1
    26    15     9    1
    27     1    23    1
    28     2    24    1
    29     4    25    1
    30     7    26    1
    31    11    27    1
    32    12    28    1
    33    12    29    1
    34    13    30    1
    35    13    31    1
    36    14    32    1
    37    14    33    1
    38    16    34    1
    39    16    35    1
    40    17    36    1
    41    17    37    1
    42    18    38    1
    43    18    39    1
    44    19    40    1
    45    21    41    1
