@<TRIPOS>MOLECULE
*****
 49 56 0 0 0
SMALL
GASTEIGER

@<TRIPOS>ATOM
      1 SI         -3.7189    3.6943    0.4633 Si      1  UNL1        0.0000
      2 C          -4.8371    2.2104    0.3378 C.2     1  UNL1        0.0000
      3 C          -4.1298    1.0621    0.3016 C.ar    1  UNL1        0.0000
      4 C          -4.7089   -0.2677    0.3884 C.ar    1  UNL1        0.0000
      5 C          -6.1271   -0.6343    0.3031 C.2     1  UNL1        0.0000
      6 C          -6.4030   -1.9442    0.4297 C.2     1  UNL1        0.0000
      7 SI         -4.8412   -2.9259    0.6860 Si      1  UNL1        0.0000
      8 C          -3.8679   -1.3154    0.5967 C.ar    1  UNL1        0.0000
      9 C          -2.3909   -1.1931    0.6504 C.ar    1  UNL1        0.0000
     10 C          -1.5596   -2.2576    0.9905 C.ar    1  UNL1        0.0000
     11 N          -0.2124   -2.2097    0.9925 N.ar    1  UNL1        0.0000
     12 C           0.3568   -1.0784    0.5199 C.ar    1  UNL1        0.0000
     13 C           1.8301   -1.0765    0.6044 C.ar    1  UNL1        0.0000
     14 C           2.5986   -0.0749    0.1265 C.ar    1  UNL1        0.0000
     15 C           4.0072   -0.1871    0.3350 C.ar    1  UNL1        0.0000
     16 S           4.8831    0.9884    1.2984 S.2     1  UNL1        0.0000
     17 C           6.4147    0.1951    1.0976 C.ar    1  UNL1        0.0000
     18 C           6.2157   -0.8990    0.3376 C.ar    1  UNL1        0.0000
     19 N           7.1550   -1.8059   -0.0574 N.ar    1  UNL1        0.0000
     20 C           6.3785   -2.6919   -0.8026 C.ar    1  UNL1        0.0000
     21 C           5.0231   -2.2978   -0.8316 C.ar    1  UNL1        0.0000
     22 C           4.9183   -1.1042   -0.0706 C.ar    1  UNL1        0.0000
     23 C           1.9228    1.0007   -0.6027 C.ar    1  UNL1        0.0000
     24 C           2.5515    1.9355   -1.3470 C.2     1  UNL1        0.0000
     25 SI          1.3481    2.9789   -2.3065 Si      1  UNL1        0.0000
     26 C          -0.0234    1.9423   -1.5799 C.2     1  UNL1        0.0000
     27 C           0.4381    1.0512   -0.6758 C.ar    1  UNL1        0.0000
     28 C          -0.3679    0.0406    0.0616 C.ar    1  UNL1        0.0000
     29 C          -1.7597    0.0368    0.3015 C.ar    1  UNL1        0.0000
     30 C          -2.6543    1.2355    0.3029 C.ar    1  UNL1        0.0000
     31 C          -2.2716    2.5179    0.4873 C.2     1  UNL1        0.0000
     32 H          -3.7443    4.5295   -0.7620 H       1  UNL1        0.0000
     33 H          -3.8836    4.4248    1.7428 H       1  UNL1        0.0000
     34 H          -5.9078    2.3216    0.3891 H       1  UNL1        0.0000
     35 H          -6.8903    0.1166    0.1426 H       1  UNL1        0.0000
     36 H          -7.3766   -2.4067    0.3930 H       1  UNL1        0.0000
     37 H          -4.7656   -3.5519    2.0287 H       1  UNL1        0.0000
     38 H          -4.5403   -3.8325   -0.4485 H       1  UNL1        0.0000
     39 H          -1.9473   -3.2201    1.3089 H       1  UNL1        0.0000
     40 H           2.2596   -1.9250    1.1297 H       1  UNL1        0.0000
     41 H           7.3257    0.5729    1.5391 H       1  UNL1        0.0000
     42 H           8.1458   -1.8106    0.1510 H       1  UNL1        0.0000
     43 H           6.8559   -3.5479   -1.2621 H       1  UNL1        0.0000
     44 H           4.2279   -2.8225   -1.3449 H       1  UNL1        0.0000
     45 H           3.6151    2.0552   -1.4820 H       1  UNL1        0.0000
     46 H           1.2981    4.3824   -1.8303 H       1  UNL1        0.0000
     47 H           1.4750    2.8011   -3.7728 H       1  UNL1        0.0000
     48 H          -1.0402    2.0904   -1.9051 H       1  UNL1        0.0000
     49 H          -1.2749    2.8963    0.6444 H       1  UNL1        0.0000
@<TRIPOS>BOND
     1     1     2    1
     2     2     3    2
     3     3     4   ar
     4     4     5    1
     5     5     6    2
     6     6     7    1
     7     7     8    1
     8     8     9   ar
     9     9    10   ar
    10    10    11   ar
    11    11    12   ar
    12    12    13   ar
    13    13    14   ar
    14    14    15    1
    15    15    16   ar
    16    16    17   ar
    17    17    18   ar
    18    18    19   ar
    19    19    20   ar
    20    20    21   ar
    21    21    22   ar
    22    14    23   ar
    23    23    24    2
    24    24    25    1
    25    25    26    1
    26    26    27    2
    27    27    28   ar
    28    28    29   ar
    29    29    30   ar
    30    30    31    2
    31    31     1    1
    32    30     3   ar
    33     8     4   ar
    34    29     9   ar
    35    28    12   ar
    36    22    15   ar
    37    27    23   ar
    38    22    18   ar
    39     1    32    1
    40     1    33    1
    41     2    34    1
    42     5    35    1
    43     6    36    1
    44     7    37    1
    45     7    38    1
    46    10    39    1
    47    13    40    1
    48    17    41    1
    49    19    42    1
    50    20    43    1
    51    21    44    1
    52    24    45    1
    53    25    46    1
    54    25    47    1
    55    26    48    1
    56    31    49    1
