@<TRIPOS>MOLECULE
*****
 32 36 0 0 0
SMALL
GASTEIGER

@<TRIPOS>ATOM
      1 C          -6.1327    0.5172    0.2015 C.ar    1  UNL1        0.0295
      2 C          -4.9538    1.2472    0.1585 C.ar    1  UNL1       -0.0196
      3 C          -3.7908    0.4813    0.1164 C.ar    1  UNL1        0.0498
      4 N          -2.4680    0.8584    0.0683 N.ar    1  UNL1       -0.3529
      5 C          -1.6457   -0.2436    0.0387 C.ar    1  UNL1        0.0640
      6 C          -0.2150   -0.1875   -0.0133 C.ar    1  UNL1        0.0639
      7 C           0.6941   -1.2295   -0.0461 C.ar    1  UNL1       -0.0272
      8 C           2.0065   -0.6846   -0.0939 C.ar    1  UNL1        0.0011
      9 C           3.2987   -1.2372   -0.1408 C.ar    1  UNL1       -0.0418
     10 C           4.4252   -0.4042   -0.1819 C.ar    1  UNL1        0.0208
     11 C           5.8320   -0.5865   -0.2329 C.ar    1  UNL1       -0.0161
     12 C           6.3870    0.6734   -0.2534 C.ar    1  UNL1        0.0931
     13 O           5.4175    1.6259   -0.2183 O.2     1  UNL1       -0.4629
     14 C           4.2266    0.9699   -0.1749 C.ar    1  UNL1        0.1368
     15 C           2.9692    1.5516   -0.1293 C.ar    1  UNL1        0.0051
     16 C           1.8653    0.7020   -0.0891 C.ar    1  UNL1        0.0505
     17 N           0.5185    0.9755   -0.0402 N.ar    1  UNL1       -0.3529
     18 C          -2.4703   -1.3533    0.0690 C.ar    1  UNL1       -0.0258
     19 C          -3.8212   -0.9113    0.1179 C.ar    1  UNL1        0.0184
     20 C          -5.0637   -1.5541    0.1633 C.ar    1  UNL1        0.0367
     21 N          -6.2114   -0.8319    0.2048 N.ar    1  UNL1       -0.2625
     22 H          -7.0926    1.0267    0.2363 H       1  UNL1        0.0830
     23 H          -4.9491    2.3289    0.1580 H       1  UNL1        0.0653
     24 H          -2.1607    1.8184    0.0568 H       1  UNL1        0.1659
     25 H           0.4456   -2.2826   -0.0369 H       1  UNL1        0.0645
     26 H           3.4223   -2.3166   -0.1451 H       1  UNL1        0.0631
     27 H           6.3739   -1.5209   -0.2525 H       1  UNL1        0.0655
     28 H           7.4018    1.0439   -0.2903 H       1  UNL1        0.1029
     29 H           2.8626    2.6307   -0.1257 H       1  UNL1        0.0675
     30 H           0.1395    1.9094   -0.0266 H       1  UNL1        0.1659
     31 H          -2.1402   -2.3838    0.0573 H       1  UNL1        0.0646
     32 H          -5.1714   -2.6325    0.1675 H       1  UNL1        0.0836
@<TRIPOS>BOND
     1     1     2   ar
     2     2     3   ar
     3     3     4   ar
     4     4     5   ar
     5     5     6    1
     6     6     7   ar
     7     7     8   ar
     8     8     9   ar
     9     9    10   ar
    10    10    11   ar
    11    11    12   ar
    12    12    13   ar
    13    13    14   ar
    14    14    15   ar
    15    15    16   ar
    16    16    17   ar
    17     5    18   ar
    18    18    19   ar
    19    19    20   ar
    20    20    21   ar
    21    21     1   ar
    22    19     3   ar
    23    17     6   ar
    24    16     8   ar
    25    14    10   ar
    26     1    22    1
    27     2    23    1
    28     4    24    1
    29     7    25    1
    30     9    26    1
    31    11    27    1
    32    12    28    1
    33    15    29    1
    34    17    30    1
    35    18    31    1
    36    20    32    1
