@<TRIPOS>MOLECULE
*****
 31 35 0 0 0
SMALL
GASTEIGER

@<TRIPOS>ATOM
      1 C          -6.0296   -0.6420   -0.2895 C.ar    1  UNL1        0.0295
      2 C          -4.8038   -1.2691   -0.4576 C.ar    1  UNL1       -0.0196
      3 C          -3.6946   -0.4660   -0.2034 C.ar    1  UNL1        0.0499
      4 N          -2.3500   -0.7463   -0.2669 N.ar    1  UNL1       -0.3517
      5 C          -1.6103    0.3598    0.0717 C.ar    1  UNL1        0.0832
      6 C          -0.1826    0.3276    0.0830 C.ar    1  UNL1        0.1523
      7 C           0.7117    1.3385    0.3957 C.ar    1  UNL1       -0.0065
      8 C           2.0191    0.8067    0.2570 C.ar    1  UNL1        0.0243
      9 C           3.3271    1.2812    0.4168 C.ar    1  UNL1       -0.0080
     10 C           4.3813    0.4074    0.1731 C.ar    1  UNL1        0.1356
     11 O           5.7058    0.6997    0.2790 O.2     1  UNL1       -0.4629
     12 C           6.3853   -0.4316   -0.0465 C.ar    1  UNL1        0.0931
     13 C           5.5136   -1.4498   -0.3611 C.ar    1  UNL1       -0.0160
     14 C           4.2065   -0.9152   -0.2216 C.ar    1  UNL1        0.0236
     15 C           2.8975   -1.3880   -0.3808 C.ar    1  UNL1       -0.0080
     16 C           1.8442   -0.5129   -0.1367 C.ar    1  UNL1        0.1365
     17 O           0.5216   -0.8048   -0.2425 O.2     1  UNL1       -0.4533
     18 C          -2.4987    1.3754    0.3599 C.ar    1  UNL1       -0.0242
     19 C          -3.8181    0.8666    0.1898 C.ar    1  UNL1        0.0184
     20 C          -5.1026    1.4053    0.3308 C.ar    1  UNL1        0.0367
     21 N          -6.1992    0.6445    0.0893 N.ar    1  UNL1       -0.2625
     22 H          -6.9533   -1.1880   -0.4648 H       1  UNL1        0.0830
     23 H          -4.7248   -2.3038   -0.7631 H       1  UNL1        0.0653
     24 H          -1.9498   -1.6379   -0.5254 H       1  UNL1        0.1660
     25 H           0.4497    2.3447    0.6902 H       1  UNL1        0.0662
     26 H           3.5235    2.3035    0.7227 H       1  UNL1        0.0661
     27 H           7.4631   -0.3540   -0.0078 H       1  UNL1        0.1029
     28 H           5.7875   -2.4530   -0.6545 H       1  UNL1        0.0655
     29 H           2.7019   -2.4102   -0.6867 H       1  UNL1        0.0661
     30 H          -2.2380    2.3812    0.6618 H       1  UNL1        0.0646
     31 H          -5.2840    2.4305    0.6321 H       1  UNL1        0.0836
@<TRIPOS>BOND
     1     1     2   ar
     2     2     3   ar
     3     3     4   ar
     4     4     5   ar
     5     5     6    1
     6     6     7   ar
     7     7     8   ar
     8     8     9   ar
     9     9    10   ar
    10    10    11   ar
    11    11    12   ar
    12    12    13   ar
    13    13    14   ar
    14    14    15   ar
    15    15    16   ar
    16    16    17   ar
    17     5    18   ar
    18    18    19   ar
    19    19    20   ar
    20    20    21   ar
    21    21     1   ar
    22    19     3   ar
    23    17     6   ar
    24    16     8   ar
    25    14    10   ar
    26     1    22    1
    27     2    23    1
    28     4    24    1
    29     7    25    1
    30     9    26    1
    31    12    27    1
    32    13    28    1
    33    15    29    1
    34    18    30    1
    35    20    31    1
