@<TRIPOS>MOLECULE
*****
 30 34 0 0 0
SMALL
GASTEIGER

@<TRIPOS>ATOM
      1 C          -5.8744   -0.1928    0.5515 C.ar    1  UNL1        0.0295
      2 C          -4.6955   -0.0944    1.2760 C.ar    1  UNL1       -0.0196
      3 C          -3.5340   -0.0765    0.5069 C.ar    1  UNL1        0.0498
      4 N          -2.2117    0.0104    0.8792 N.ar    1  UNL1       -0.3529
      5 C          -1.3911   -0.0069   -0.2248 C.ar    1  UNL1        0.0640
      6 C           0.0388    0.0682   -0.1753 C.ar    1  UNL1        0.0665
      7 C           0.9471    0.0583   -1.2262 C.ar    1  UNL1       -0.0073
      8 C           2.2455    0.1532   -0.6805 C.ar    1  UNL1        0.1090
      9 N           3.4718    0.1841   -1.2671 N.ar    1  UNL1       -0.2387
     10 C           4.5167    0.2832   -0.4009 C.ar    1  UNL1        0.1293
     11 C           5.9096    0.3426   -0.6110 C.ar    1  UNL1        0.0039
     12 C           6.4763    0.4380    0.6423 C.ar    1  UNL1        0.0966
     13 O           5.5205    0.4413    1.6139 O.2     1  UNL1       -0.4439
     14 C           4.3204    0.3467    0.9785 C.ar    1  UNL1        0.2478
     15 N           3.1158    0.3180    1.5861 N.ar    1  UNL1       -0.1914
     16 C           2.1054    0.2195    0.6996 C.ar    1  UNL1        0.1609
     17 N           0.7723    0.1674    0.9890 N.ar    1  UNL1       -0.3366
     18 C          -2.2161   -0.1076   -1.3300 C.ar    1  UNL1       -0.0258
     19 C          -3.5658   -0.1522   -0.8836 C.ar    1  UNL1        0.0184
     20 C          -4.8082   -0.2492   -1.5210 C.ar    1  UNL1        0.0367
     21 N          -5.9542   -0.2686   -0.7954 N.ar    1  UNL1       -0.2625
     22 H          -6.8333   -0.2141    1.0637 H       1  UNL1        0.0830
     23 H          -4.6900   -0.0366    2.3562 H       1  UNL1        0.0653
     24 H          -1.9057    0.0770    1.8378 H       1  UNL1        0.1659
     25 H           0.7065   -0.0099   -2.2780 H       1  UNL1        0.0661
     26 H           6.4312    0.3187   -1.5558 H       1  UNL1        0.0671
     27 H           7.4955    0.5086    0.9975 H       1  UNL1        0.1031
     28 H           0.4129    0.1993    1.9297 H       1  UNL1        0.1674
     29 H          -1.8887   -0.1460   -2.3610 H       1  UNL1        0.0646
     30 H          -4.9172   -0.3121   -2.5974 H       1  UNL1        0.0836
@<TRIPOS>BOND
     1     1     2   ar
     2     2     3   ar
     3     3     4   ar
     4     4     5   ar
     5     5     6    1
     6     6     7   ar
     7     7     8   ar
     8     8     9   ar
     9     9    10   ar
    10    10    11   ar
    11    11    12   ar
    12    12    13   ar
    13    13    14   ar
    14    14    15   ar
    15    15    16   ar
    16    16    17   ar
    17     5    18   ar
    18    18    19   ar
    19    19    20   ar
    20    20    21   ar
    21    21     1   ar
    22    19     3   ar
    23    17     6   ar
    24    16     8   ar
    25    14    10   ar
    26     1    22    1
    27     2    23    1
    28     4    24    1
    29     7    25    1
    30    11    26    1
    31    12    27    1
    32    17    28    1
    33    18    29    1
    34    20    30    1
