@<TRIPOS>MOLECULE
*****
 27 30 0 0 0
SMALL
GASTEIGER

@<TRIPOS>ATOM
      1 C          -4.9238    0.3327   -0.4789 C.ar    1  UNL1        0.0295
      2 C          -3.7312    0.8059   -1.0061 C.ar    1  UNL1       -0.0196
      3 C          -2.5822    0.3153   -0.3897 C.ar    1  UNL1        0.0498
      4 N          -1.2535    0.5614   -0.6431 N.ar    1  UNL1       -0.3541
      5 C          -0.4346   -0.1437    0.2185 C.ar    1  UNL1        0.0476
      6 C           1.0390   -0.0804    0.1864 C.ar    1  UNL1        0.0005
      7 C           1.7982   -0.8340    1.1039 C.ar    1  UNL1       -0.0505
      8 C           3.2024   -0.8172    1.1251 C.ar    1  UNL1       -0.0341
      9 C           3.8206   -0.0058    0.1791 C.ar    1  UNL1        0.0858
     10 N           5.1253    0.2734   -0.1143 N.ar    1  UNL1       -0.2571
     11 N           5.2350    1.1372   -1.1372 N.ar    1  UNL1       -0.0673
     12 N           4.0051    1.4410   -1.5342 N.ar    1  UNL1       -0.1296
     13 C           3.1217    0.7545   -0.7445 C.ar    1  UNL1        0.1131
     14 C           1.7180    0.7239   -0.7492 C.ar    1  UNL1       -0.0233
     15 C          -1.2933   -0.8590    1.0430 C.ar    1  UNL1       -0.0272
     16 C          -2.6375   -0.5801    0.6723 C.ar    1  UNL1        0.0183
     17 C          -3.8917   -0.9982    1.1323 C.ar    1  UNL1        0.0367
     18 N          -5.0270   -0.5368    0.5509 N.ar    1  UNL1       -0.2625
     19 H          -5.8745    0.6585   -0.8938 H       1  UNL1        0.0830
     20 H          -3.7054    1.5027   -1.8332 H       1  UNL1        0.0653
     21 H          -0.9325    1.1819   -1.3709 H       1  UNL1        0.1659
     22 H           1.2987   -1.4641    1.8378 H       1  UNL1        0.0625
     23 H           3.7627   -1.4071    1.8422 H       1  UNL1        0.0639
     24 H           5.9694   -0.0741    0.3233 H       1  UNL1        0.1907
     25 H           1.2058    1.3301   -1.4844 H       1  UNL1        0.0646
     26 H          -0.9961   -1.5246    1.8424 H       1  UNL1        0.0645
     27 H          -4.0186   -1.6931    1.9541 H       1  UNL1        0.0836
@<TRIPOS>BOND
     1     1     2   ar
     2     2     3   ar
     3     3     4   ar
     4     4     5   ar
     5     5     6    1
     6     6     7   ar
     7     7     8   ar
     8     8     9   ar
     9     9    10   ar
    10    10    11   ar
    11    11    12   ar
    12    12    13   ar
    13    13    14   ar
    14     5    15   ar
    15    15    16   ar
    16    16    17   ar
    17    17    18   ar
    18    18     1   ar
    19    16     3   ar
    20    14     6   ar
    21    13     9   ar
    22     1    19    1
    23     2    20    1
    24     4    21    1
    25     7    22    1
    26     8    23    1
    27    10    24    1
    28    14    25    1
    29    15    26    1
    30    17    27    1
