@<TRIPOS>MOLECULE
*****
 22 24 0 0 0
SMALL
GASTEIGER

@<TRIPOS>ATOM
      1 C           3.9203    0.3960   -0.4443 C.ar    1  UNL1        0.0295
      2 C           2.7620    1.1325   -0.6442 C.ar    1  UNL1       -0.0196
      3 C           1.5814    0.4697   -0.3167 C.ar    1  UNL1        0.0498
      4 N           0.2709    0.8829   -0.3849 N.ar    1  UNL1       -0.3540
      5 C          -0.5637   -0.1140    0.0452 C.ar    1  UNL1        0.0505
      6 C          -2.1022   -0.0198    0.1119 C.ar    1  UNL1        0.0355
      7 C          -3.0306   -0.9879    0.5375 C.ar    1  UNL1        0.0582
      8 N          -4.2908   -0.5497    0.4565 N.ar    1  UNL1       -0.1817
      9 N          -4.1600    0.6994   -0.0217 N.ar    1  UNL1       -0.2841
     10 C          -2.8626    1.0662   -0.2457 C.ar    1  UNL1        0.0314
     11 C           0.2156   -1.1929    0.3989 C.ar    1  UNL1       -0.0271
     12 C           1.5760   -0.8364    0.1745 C.ar    1  UNL1        0.0183
     13 C           2.8013   -1.4931    0.3400 C.ar    1  UNL1        0.0367
     14 N           3.9649   -0.8695    0.0283 N.ar    1  UNL1       -0.2625
     15 H           4.8916    0.8287   -0.6715 H       1  UNL1        0.0830
     16 H           2.7842    2.1444   -1.0260 H       1  UNL1        0.0653
     17 H          -0.0323    1.7906   -0.7060 H       1  UNL1        0.1659
     18 H          -2.8469   -1.9899    0.9018 H       1  UNL1        0.0854
     19 H          -5.0022    1.2456   -0.1710 H       1  UNL1        0.1882
     20 H          -2.6190    2.0449   -0.6297 H       1  UNL1        0.0830
     21 H          -0.1408   -2.1411    0.7789 H       1  UNL1        0.0645
     22 H           2.8827   -2.5066    0.7155 H       1  UNL1        0.0836
@<TRIPOS>BOND
     1     1     2   ar
     2     2     3   ar
     3     3     4   ar
     4     4     5   ar
     5     5     6    1
     6     6     7   ar
     7     7     8   ar
     8     8     9   ar
     9     9    10   ar
    10     5    11   ar
    11    11    12   ar
    12    12    13   ar
    13    13    14   ar
    14    14     1   ar
    15    12     3   ar
    16    10     6   ar
    17     1    15    1
    18     2    16    1
    19     4    17    1
    20     7    18    1
    21     9    19    1
    22    10    20    1
    23    11    21    1
    24    13    22    1
