@<TRIPOS>MOLECULE
*****
 33 37 0 0 0
SMALL
GASTEIGER

@<TRIPOS>ATOM
      1 C           5.2872    0.9569   -1.6292 C.ar    1  UNL1        0.0295
      2 C           4.1755    0.3782   -2.2235 C.ar    1  UNL1       -0.0196
      3 C           3.1498    0.0388   -1.3441 C.ar    1  UNL1        0.0498
      4 N           1.9266   -0.5455   -1.5767 N.ar    1  UNL1       -0.3540
      5 C           1.2215   -0.6832   -0.4016 C.ar    1  UNL1        0.0510
      6 C          -0.1105   -1.2560   -0.3548 C.ar    1  UNL1        0.0403
      7 C          -0.4443   -2.5023   -0.8740 C.ar    1  UNL1        0.0387
      8 N          -1.6828   -3.0469   -0.8517 N.ar    1  UNL1       -0.2619
      9 C          -2.6925   -2.3491   -0.2749 C.ar    1  UNL1        0.0374
     10 C          -2.4629   -1.0817    0.2790 C.ar    1  UNL1        0.0276
     11 C          -1.1701   -0.5544    0.2275 C.ar    1  UNL1        0.0597
     12 N          -1.2213    0.6917    0.8108 N.ar    1  UNL1       -0.3535
     13 C          -2.4903    0.9768    1.2521 C.ar    1  UNL1        0.0504
     14 C          -2.9927    2.1040    1.8985 C.ar    1  UNL1       -0.0196
     15 C          -4.3454    2.0520    2.1985 C.ar    1  UNL1        0.0295
     16 N          -5.1635    1.0162    1.9101 N.ar    1  UNL1       -0.2625
     17 C          -4.6502   -0.0692    1.2798 C.ar    1  UNL1        0.0373
     18 C          -3.2936   -0.1176    0.9333 C.ar    1  UNL1        0.0270
     19 C           2.0293   -0.1901    0.6077 C.ar    1  UNL1       -0.0271
     20 C           3.2438    0.2687    0.0271 C.ar    1  UNL1        0.0183
     21 C           4.4121    0.8541    0.5293 C.ar    1  UNL1        0.0367
     22 N           5.4237    1.1969   -0.3062 N.ar    1  UNL1       -0.2625
     23 H           6.1397    1.2560   -2.2344 H       1  UNL1        0.0830
     24 H           4.1196    0.2062   -3.2902 H       1  UNL1        0.0653
     25 H           1.5844   -0.8124   -2.4898 H       1  UNL1        0.1659
     26 H           0.3115   -3.1333   -1.3352 H       1  UNL1        0.0837
     27 H          -3.6661   -2.8265   -0.2753 H       1  UNL1        0.0836
     28 H          -0.4275    1.3113    0.8948 H       1  UNL1        0.1659
     29 H          -2.3818    2.9606    2.1512 H       1  UNL1        0.0653
     30 H          -4.8286    2.8850    2.7034 H       1  UNL1        0.0830
     31 H          -5.3453   -0.8739    1.0692 H       1  UNL1        0.0836
     32 H           1.7790   -0.1721    1.6611 H       1  UNL1        0.0645
     33 H           4.5655    1.0610    1.5820 H       1  UNL1        0.0836
@<TRIPOS>BOND
     1     1     2   ar
     2     2     3   ar
     3     3     4   ar
     4     4     5   ar
     5     5     6    1
     6     6     7   ar
     7     7     8   ar
     8     8     9   ar
     9     9    10   ar
    10    10    11   ar
    11    11    12   ar
    12    12    13   ar
    13    13    14   ar
    14    14    15   ar
    15    15    16   ar
    16    16    17   ar
    17    17    18   ar
    18     5    19   ar
    19    19    20   ar
    20    20    21   ar
    21    21    22   ar
    22    22     1   ar
    23    20     3   ar
    24    11     6   ar
    25    18    13   ar
    26    18    10   ar
    27     1    23    1
    28     2    24    1
    29     4    25    1
    30     7    26    1
    31     9    27    1
    32    12    28    1
    33    14    29    1
    34    15    30    1
    35    17    31    1
    36    19    32    1
    37    21    33    1
