@<TRIPOS>MOLECULE
*****
 29 33 0 0 0
SMALL
GASTEIGER

@<TRIPOS>ATOM
      1 C          -5.7412    0.8390   -0.8000 C.ar    1  UNL1        0.0295
      2 C          -4.4995    1.3943   -1.0716 C.ar    1  UNL1       -0.0196
      3 C          -3.4126    0.6504   -0.6187 C.ar    1  UNL1        0.0499
      4 N          -2.0615    0.8895   -0.7092 N.ar    1  UNL1       -0.3504
      5 C          -1.3554   -0.1265   -0.1159 C.ar    1  UNL1        0.1031
      6 C           0.0693   -0.1224   -0.0721 C.ar    1  UNL1        0.2450
      7 N           0.7948    0.8537   -0.5967 N.ar    1  UNL1       -0.2076
      8 C           2.0886    0.4786   -0.3442 C.ar    1  UNL1        0.1135
      9 C           3.3089    1.0881   -0.6470 C.ar    1  UNL1        0.0120
     10 C           4.4664    0.4361   -0.2434 C.ar    1  UNL1        0.1573
     11 O           5.7600    0.8284   -0.4219 O.2     1  UNL1       -0.4424
     12 C           6.4794   -0.1725    0.1634 C.ar    1  UNL1        0.1831
     13 N           5.7719   -1.1501    0.6895 N.ar    1  UNL1       -0.2160
     14 C           4.4781   -0.7751    0.4371 C.ar    1  UNL1        0.1129
     15 C           3.2571   -1.3833    0.7391 C.ar    1  UNL1        0.0120
     16 C           2.1004   -0.7306    0.3351 C.ar    1  UNL1        0.1580
     17 O           0.8094   -1.1226    0.5134 O.2     1  UNL1       -0.4340
     18 C          -2.2679   -1.0404    0.3677 C.ar    1  UNL1       -0.0226
     19 C          -3.5721   -0.5609    0.0563 C.ar    1  UNL1        0.0185
     20 C          -4.8702   -1.0349    0.2804 C.ar    1  UNL1        0.0367
     21 N          -5.9451   -0.3289   -0.1508 N.ar    1  UNL1       -0.2625
     22 H          -6.6497    1.3469   -1.1146 H       1  UNL1        0.0830
     23 H          -4.3931    2.3346   -1.5961 H       1  UNL1        0.0653
     24 H          -1.6325    1.6943   -1.1473 H       1  UNL1        0.1660
     25 H           3.3491    2.0327   -1.1761 H       1  UNL1        0.0677
     26 H           7.5553   -0.0680    0.1396 H       1  UNL1        0.1255
     27 H           3.2177   -2.3281    1.2683 H       1  UNL1        0.0677
     28 H          -2.0263   -1.9573    0.8904 H       1  UNL1        0.0647
     29 H          -5.0795   -1.9650    0.7959 H       1  UNL1        0.0836
@<TRIPOS>BOND
     1     1     2   ar
     2     2     3   ar
     3     3     4   ar
     4     4     5   ar
     5     5     6    1
     6     6     7   ar
     7     7     8   ar
     8     8     9   ar
     9     9    10   ar
    10    10    11   ar
    11    11    12   ar
    12    12    13   ar
    13    13    14   ar
    14    14    15   ar
    15    15    16   ar
    16    16    17   ar
    17     5    18   ar
    18    18    19   ar
    19    19    20   ar
    20    20    21   ar
    21    21     1   ar
    22    19     3   ar
    23    17     6   ar
    24    16     8   ar
    25    14    10   ar
    26     1    22    1
    27     2    23    1
    28     4    24    1
    29     9    25    1
    30    12    26    1
    31    15    27    1
    32    18    28    1
    33    20    29    1
