@<TRIPOS>MOLECULE
*****
 29 33 0 0 0
SMALL
GASTEIGER

@<TRIPOS>ATOM
      1 C          -5.8524    0.0056    0.3837 C.ar    1  UNL1        0.0295
      2 C          -4.6200    0.0270    1.0198 C.ar    1  UNL1       -0.0196
      3 C          -3.5194    0.0043    0.1665 C.ar    1  UNL1        0.0499
      4 N          -2.1728    0.0153    0.4390 N.ar    1  UNL1       -0.3525
      5 C          -1.4406   -0.0174   -0.7244 C.ar    1  UNL1        0.0729
      6 C          -0.0096   -0.0131   -0.6856 C.ar    1  UNL1        0.1256
      7 N           0.6331    0.0222    0.4623 N.ar    1  UNL1       -0.2375
      8 C           1.9985    0.0184    0.2337 C.ar    1  UNL1        0.0801
      9 C           3.0004    0.0495    1.2121 C.ar    1  UNL1       -0.0194
     10 C           4.3458    0.0416    0.8438 C.ar    1  UNL1        0.0410
     11 S           5.7569    0.0738    1.8298 S.2     1  UNL1       -0.0753
     12 C           6.7287    0.0343    0.4207 C.ar    1  UNL1        0.0659
     13 N           6.0915   -0.0009   -0.7275 N.ar    1  UNL1       -0.2474
     14 C           4.7264    0.0028   -0.4980 C.ar    1  UNL1        0.0793
     15 C           3.7239   -0.0282   -1.4757 C.ar    1  UNL1       -0.0194
     16 C           2.3790   -0.0203   -1.1070 C.ar    1  UNL1        0.0417
     17 S           0.9688   -0.0523   -2.0898 S.2     1  UNL1       -0.0657
     18 C          -2.3426   -0.0502   -1.7702 C.ar    1  UNL1       -0.0252
     19 C          -3.6568   -0.0369   -1.2207 C.ar    1  UNL1        0.0184
     20 C          -4.9469   -0.0557   -1.7641 C.ar    1  UNL1        0.0367
     21 N          -6.0353   -0.0343   -0.9551 N.ar    1  UNL1       -0.2625
     22 H          -6.7704    0.0207    0.9661 H       1  UNL1        0.0830
     23 H          -4.5298    0.0590    2.0974 H       1  UNL1        0.0653
     24 H          -1.7564    0.0434    1.3607 H       1  UNL1        0.1660
     25 H           2.7150    0.0797    2.2598 H       1  UNL1        0.0651
     26 H           7.8094    0.0385    0.4799 H       1  UNL1        0.0907
     27 H           4.0111   -0.0584   -2.5231 H       1  UNL1        0.0651
     28 H          -2.0961   -0.0807   -2.8239 H       1  UNL1        0.0646
     29 H          -5.1394   -0.0876   -2.8302 H       1  UNL1        0.0836
@<TRIPOS>BOND
     1     1     2   ar
     2     2     3   ar
     3     3     4   ar
     4     4     5   ar
     5     5     6    1
     6     6     7   ar
     7     7     8   ar
     8     8     9   ar
     9     9    10   ar
    10    10    11   ar
    11    11    12   ar
    12    12    13   ar
    13    13    14   ar
    14    14    15   ar
    15    15    16   ar
    16    16    17   ar
    17     5    18   ar
    18    18    19   ar
    19    19    20   ar
    20    20    21   ar
    21    21     1   ar
    22    19     3   ar
    23    17     6   ar
    24    16     8   ar
    25    14    10   ar
    26     1    22    1
    27     2    23    1
    28     4    24    1
    29     9    25    1
    30    12    26    1
    31    15    27    1
    32    18    28    1
    33    20    29    1
