@<TRIPOS>MOLECULE
*****
 29 33 0 0 0
SMALL
GASTEIGER

@<TRIPOS>ATOM
      1 C          -5.6423    0.9912   -1.1815 C.ar    1  UNL1        0.0295
      2 C          -4.3631    1.3753   -1.5553 C.ar    1  UNL1       -0.0196
      3 C          -3.3344    0.7263   -0.8771 C.ar    1  UNL1        0.0499
      4 N          -1.9703    0.8518   -0.9854 N.ar    1  UNL1       -0.3517
      5 C          -1.3368    0.0036   -0.1093 C.ar    1  UNL1        0.0833
      6 C           0.0844   -0.0392   -0.0448 C.ar    1  UNL1        0.1585
      7 N           0.8700    0.7086   -0.7975 N.ar    1  UNL1       -0.2053
      8 C           2.1404    0.3629   -0.4257 C.ar    1  UNL1        0.1998
      9 N           3.3049    0.8560   -0.9126 N.ar    1  UNL1       -0.2020
     10 C           4.4171    0.3223   -0.3509 C.ar    1  UNL1        0.1992
     11 N           5.7226    0.6192   -0.6352 N.ar    1  UNL1       -0.2152
     12 C           6.4248   -0.1556    0.1668 C.ar    1  UNL1        0.0973
     13 N           5.6276   -0.9414    0.9582 N.ar    1  UNL1       -0.3279
     14 C           4.3355   -0.6506    0.6422 C.ar    1  UNL1        0.1791
     15 N           3.2003   -1.1690    1.1554 N.ar    1  UNL1       -0.2052
     16 C           2.1211   -0.6105    0.5689 C.ar    1  UNL1        0.1796
     17 N           0.8018   -0.8530    0.7974 N.ar    1  UNL1       -0.3202
     18 C          -2.3152   -0.6838    0.5789 C.ar    1  UNL1       -0.0242
     19 C          -3.5820   -0.2356    0.1023 C.ar    1  UNL1        0.0184
     20 C          -4.9117   -0.5519    0.4062 C.ar    1  UNL1        0.0367
     21 N          -5.9317    0.0654   -0.2396 N.ar    1  UNL1       -0.2625
     22 H          -6.5105    1.4426   -1.6555 H       1  UNL1        0.0830
     23 H          -4.1863    2.1231   -2.3171 H       1  UNL1        0.0653
     24 H          -1.4796    1.4748   -1.6149 H       1  UNL1        0.1660
     25 H           7.5054   -0.1922    0.2201 H       1  UNL1        0.1028
     26 H           5.9287   -1.6126    1.6486 H       1  UNL1        0.1683
     27 H           0.4283   -1.5101    1.4635 H       1  UNL1        0.1689
     28 H          -2.1592   -1.4312    1.3451 H       1  UNL1        0.0646
     29 H          -5.1899   -1.2865    1.1529 H       1  UNL1        0.0836
@<TRIPOS>BOND
     1     1     2   ar
     2     2     3   ar
     3     3     4   ar
     4     4     5   ar
     5     5     6    1
     6     6     7   ar
     7     7     8   ar
     8     8     9   ar
     9     9    10   ar
    10    10    11   ar
    11    11    12   ar
    12    12    13   ar
    13    13    14   ar
    14    14    15   ar
    15    15    16   ar
    16    16    17   ar
    17     5    18   ar
    18    18    19   ar
    19    19    20   ar
    20    20    21   ar
    21    21     1   ar
    22    19     3   ar
    23    17     6   ar
    24    16     8   ar
    25    14    10   ar
    26     1    22    1
    27     2    23    1
    28     4    24    1
    29    12    25    1
    30    13    26    1
    31    17    27    1
    32    18    28    1
    33    20    29    1
