@<TRIPOS>MOLECULE
*****
 34 38 0 0 0
SMALL
GASTEIGER

@<TRIPOS>ATOM
      1 C          -4.7795    2.0058    0.6786 C.ar    1  UNL1        0.0295
      2 C          -3.4024    1.9766    0.8370 C.ar    1  UNL1       -0.0196
      3 C          -2.7689    0.8734    0.2692 C.ar    1  UNL1        0.0504
      4 N          -1.4409    0.5246    0.2375 N.ar    1  UNL1       -0.3535
      5 C          -1.2548   -0.6578   -0.4467 C.ar    1  UNL1        0.0583
      6 C          -0.0844   -1.3811   -0.7254 C.ar    1  UNL1        0.0242
      7 C           1.2416   -0.9339   -0.3044 C.ar    1  UNL1       -0.0123
      8 C           2.0345   -1.7216    0.5360 C.ar    1  UNL1       -0.0518
      9 C           3.2989   -1.2806    0.9370 C.ar    1  UNL1       -0.0337
     10 C           3.8035   -0.0582    0.5180 C.ar    1  UNL1        0.0892
     11 N           5.0243    0.3365    0.9297 N.ar    1  UNL1       -0.2519
     12 C           5.4501    1.5367    0.4804 C.ar    1  UNL1        0.0464
     13 C           4.6818    2.3255   -0.3504 C.ar    1  UNL1        0.0464
     14 N           3.4538    1.9489   -0.7688 N.ar    1  UNL1       -0.2519
     15 C           3.0152    0.7506   -0.3362 C.ar    1  UNL1        0.0897
     16 C           1.7613    0.2984   -0.7317 C.ar    1  UNL1       -0.0264
     17 C          -0.3094   -2.5648   -1.4313 C.ar    1  UNL1        0.0373
     18 N          -1.5143   -3.0253   -1.8417 N.ar    1  UNL1       -0.2619
     19 C          -2.6195   -2.2959   -1.5603 C.ar    1  UNL1        0.0374
     20 C          -2.5195   -1.0918   -0.8518 C.ar    1  UNL1        0.0275
     21 C          -3.4727   -0.1224   -0.4058 C.ar    1  UNL1        0.0269
     22 C          -4.8644    0.0012   -0.5090 C.ar    1  UNL1        0.0373
     23 N          -5.5052    1.0656    0.0346 N.ar    1  UNL1       -0.2625
     24 H          -5.3622    2.8279    1.0871 H       1  UNL1        0.0830
     25 H          -2.8690    2.7569    1.3638 H       1  UNL1        0.0653
     26 H          -0.6967    1.0622    0.6597 H       1  UNL1        0.1659
     27 H           1.6735   -2.6835    0.8974 H       1  UNL1        0.0624
     28 H           3.9027   -1.9030    1.5934 H       1  UNL1        0.0640
     29 H           6.4344    1.8477    0.8108 H       1  UNL1        0.0845
     30 H           5.0326    3.2875   -0.7057 H       1  UNL1        0.0845
     31 H           1.1823    0.9280   -1.4059 H       1  UNL1        0.0645
     32 H           0.5248   -3.2070   -1.7082 H       1  UNL1        0.0836
     33 H          -3.5628   -2.7005   -1.9096 H       1  UNL1        0.0836
     34 H          -5.4887   -0.7264   -1.0150 H       1  UNL1        0.0836
@<TRIPOS>BOND
     1     1     2   ar
     2     2     3   ar
     3     3     4   ar
     4     4     5   ar
     5     5     6   ar
     6     6     7    1
     7     7     8   ar
     8     8     9   ar
     9     9    10   ar
    10    10    11   ar
    11    11    12   ar
    12    12    13   ar
    13    13    14   ar
    14    14    15   ar
    15    15    16   ar
    16     6    17   ar
    17    17    18   ar
    18    18    19   ar
    19    19    20   ar
    20    20    21   ar
    21    21    22   ar
    22    22    23   ar
    23    23     1   ar
    24    21     3   ar
    25    20     5   ar
    26    16     7   ar
    27    15    10   ar
    28     1    24    1
    29     2    25    1
    30     4    26    1
    31     8    27    1
    32     9    28    1
    33    12    29    1
    34    13    30    1
    35    16    31    1
    36    17    32    1
    37    19    33    1
    38    22    34    1
