@<TRIPOS>MOLECULE
*****
 45 51 0 0 0
SMALL
GASTEIGER

@<TRIPOS>ATOM
      1 SI         -3.2723   -1.8563    3.3460 Si      1  UNL1        0.0000
      2 C          -4.5392   -0.9911    2.2752 C.2     1  UNL1        0.0000
      3 C          -3.9677   -0.4570    1.1764 C.ar    1  UNL1        0.0000
      4 C          -4.6721    0.2920    0.1223 C.ar    1  UNL1        0.0000
      5 C          -6.1010    0.6127    0.0357 C.2     1  UNL1        0.0000
      6 C          -6.4714    1.3177   -1.0509 C.2     1  UNL1        0.0000
      7 SI         -4.9852    1.6847   -2.1593 Si      1  UNL1        0.0000
      8 C          -3.9574    0.7733   -0.9322 C.ar    1  UNL1        0.0000
      9 C          -2.5568    0.5574   -1.0157 C.ar    1  UNL1        0.0000
     10 O          -1.7134    0.9846   -2.0206 O.2     1  UNL1        0.0000
     11 C          -0.4762    0.5432   -1.6621 C.ar    1  UNL1        0.0000
     12 C           0.8292    0.5963   -2.1750 C.ar    1  UNL1        0.0000
     13 C           1.5909   -0.0844   -1.2305 C.ar    1  UNL1        0.0000
     14 N           0.7608   -0.5389   -0.2176 N.ar    1  UNL1        0.0000
     15 C          -0.5141   -0.1325   -0.4952 C.ar    1  UNL1        0.0000
     16 C          -1.8386   -0.1430   -0.0492 C.ar    1  UNL1        0.0000
     17 C          -2.4899   -0.6855    1.0895 C.ar    1  UNL1        0.0000
     18 C          -1.9533   -1.3819    2.1081 C.2     1  UNL1        0.0000
     19 C           3.0281   -0.3752   -1.2258 C.ar    1  UNL1        0.0000
     20 C           3.5146   -1.2484   -2.2108 C.ar    1  UNL1        0.0000
     21 C           4.8593   -1.6018   -2.2430 C.ar    1  UNL1        0.0000
     22 C           5.7334   -1.0853   -1.2900 C.ar    1  UNL1        0.0000
     23 C           5.2809   -0.2005   -0.2990 C.ar    1  UNL1        0.0000
     24 C           6.1810    0.3167    0.6479 C.ar    1  UNL1        0.0000
     25 C           5.7566    1.2091    1.6312 C.ar    1  UNL1        0.0000
     26 C           4.4260    1.6020    1.6774 C.ar    1  UNL1        0.0000
     27 C           3.5183    1.0950    0.7448 C.ar    1  UNL1        0.0000
     28 C           3.9141    0.1762   -0.2576 C.ar    1  UNL1        0.0000
     29 H          -3.4857   -3.3220    3.4049 H       1  UNL1        0.0000
     30 H          -3.0818   -1.1845    4.6535 H       1  UNL1        0.0000
     31 H          -5.5786   -0.9603    2.5584 H       1  UNL1        0.0000
     32 H          -6.7952    0.2953    0.8030 H       1  UNL1        0.0000
     33 H          -7.4630    1.6547   -1.3070 H       1  UNL1        0.0000
     34 H          -5.1422    1.0061   -3.4713 H       1  UNL1        0.0000
     35 H          -4.7376    3.1480   -2.2193 H       1  UNL1        0.0000
     36 H           1.1747    1.0613   -3.0866 H       1  UNL1        0.0000
     37 H           1.0258   -1.0774    0.5969 H       1  UNL1        0.0000
     38 H          -0.9222   -1.6588    2.2485 H       1  UNL1        0.0000
     39 H           2.8379   -1.6664   -2.9533 H       1  UNL1        0.0000
     40 H           5.2255   -2.2818   -3.0074 H       1  UNL1        0.0000
     41 H           6.7812   -1.3760   -1.3308 H       1  UNL1        0.0000
     42 H           7.2302    0.0294    0.6227 H       1  UNL1        0.0000
     43 H           6.4676    1.6026    2.3527 H       1  UNL1        0.0000
     44 H           4.0906    2.3085    2.4321 H       1  UNL1        0.0000
     45 H           2.4886    1.4423    0.7978 H       1  UNL1        0.0000
@<TRIPOS>BOND
     1     1     2    1
     2     2     3    2
     3     3     4   ar
     4     4     5    1
     5     5     6    2
     6     6     7    1
     7     7     8    1
     8     8     9   ar
     9     9    10   ar
    10    10    11   ar
    11    11    12   ar
    12    12    13   ar
    13    13    14   ar
    14    14    15   ar
    15    15    16   ar
    16    16    17   ar
    17    17    18    2
    18    13    19    1
    19    19    20   ar
    20    20    21   ar
    21    21    22   ar
    22    22    23   ar
    23    23    24   ar
    24    24    25   ar
    25    25    26   ar
    26    26    27   ar
    27    27    28   ar
    28    18     1    1
    29    28    19   ar
    30    17     3   ar
    31    28    23   ar
    32     8     4   ar
    33    16     9   ar
    34    15    11   ar
    35     1    29    1
    36     1    30    1
    37     2    31    1
    38     5    32    1
    39     6    33    1
    40     7    34    1
    41     7    35    1
    42    12    36    1
    43    14    37    1
    44    18    38    1
    45    20    39    1
    46    21    40    1
    47    22    41    1
    48    24    42    1
    49    25    43    1
    50    26    44    1
    51    27    45    1
