@<TRIPOS>MOLECULE
*****
 32 36 0 0 0
SMALL
GASTEIGER

@<TRIPOS>ATOM
      1 C          -4.8255    2.2850   -0.2631 C.ar    1  UNL1        0.0295
      2 C          -3.4555    2.3896   -0.0772 C.ar    1  UNL1       -0.0196
      3 C          -2.7639    1.1805   -0.1103 C.ar    1  UNL1        0.0504
      4 N          -1.4230    0.9151    0.0256 N.ar    1  UNL1       -0.3535
      5 C          -1.1722   -0.4399   -0.0527 C.ar    1  UNL1        0.0598
      6 C           0.0279   -1.1686    0.0426 C.ar    1  UNL1        0.0439
      7 C           1.3218   -0.5698    0.3422 C.ar    1  UNL1        0.0950
      8 C           1.5287    0.3032    1.3990 C.ar    1  UNL1        0.0562
      9 N           2.7258    0.8716    1.6622 N.ar    1  UNL1       -0.2310
     10 C           3.7437    0.5324    0.8619 C.ar    1  UNL1        0.1977
     11 N           4.9439    1.0771    1.1011 N.ar    1  UNL1       -0.2316
     12 C           5.9530    0.7135    0.2838 C.ar    1  UNL1        0.0482
     13 C           5.7698   -0.1733   -0.7537 C.ar    1  UNL1        0.0482
     14 N           4.5698   -0.7303   -1.0154 N.ar    1  UNL1       -0.2316
     15 C           3.5516   -0.3854   -0.2164 C.ar    1  UNL1        0.1983
     16 N           2.3490   -0.9238   -0.4621 N.ar    1  UNL1       -0.2230
     17 C          -0.1271   -2.5379   -0.1832 C.ar    1  UNL1        0.0388
     18 N          -1.2982   -3.1751   -0.4208 N.ar    1  UNL1       -0.2619
     19 C          -2.4360   -2.4464   -0.4754 C.ar    1  UNL1        0.0374
     20 C          -2.4028   -1.0570   -0.3025 C.ar    1  UNL1        0.0276
     21 C          -3.4061   -0.0376   -0.3197 C.ar    1  UNL1        0.0270
     22 C          -4.7953   -0.0343   -0.5015 C.ar    1  UNL1        0.0373
     23 N          -5.4924    1.1284   -0.4680 N.ar    1  UNL1       -0.2625
     24 H          -5.4514    3.1742   -0.2528 H       1  UNL1        0.0830
     25 H          -2.9705    3.3441    0.0799 H       1  UNL1        0.0653
     26 H          -0.7184    1.6291    0.1462 H       1  UNL1        0.1659
     27 H           0.7331    0.5701    2.0880 H       1  UNL1        0.0852
     28 H           6.9196    1.1596    0.4905 H       1  UNL1        0.0846
     29 H           6.5840   -0.4637   -1.4084 H       1  UNL1        0.0846
     30 H           0.7398   -3.1977   -0.1657 H       1  UNL1        0.0837
     31 H          -3.3493   -2.9978   -0.6698 H       1  UNL1        0.0836
     32 H          -5.3739   -0.9348   -0.6734 H       1  UNL1        0.0836
@<TRIPOS>BOND
     1     1     2   ar
     2     2     3   ar
     3     3     4   ar
     4     4     5   ar
     5     5     6   ar
     6     6     7    1
     7     7     8   ar
     8     8     9   ar
     9     9    10   ar
    10    10    11   ar
    11    11    12   ar
    12    12    13   ar
    13    13    14   ar
    14    14    15   ar
    15    15    16   ar
    16     6    17   ar
    17    17    18   ar
    18    18    19   ar
    19    19    20   ar
    20    20    21   ar
    21    21    22   ar
    22    22    23   ar
    23    23     1   ar
    24    21     3   ar
    25    20     5   ar
    26    16     7   ar
    27    15    10   ar
    28     1    24    1
    29     2    25    1
    30     4    26    1
    31     8    27    1
    32    12    28    1
    33    13    29    1
    34    17    30    1
    35    19    31    1
    36    22    32    1
