@<TRIPOS>MOLECULE
*****
 26 29 0 0 0
SMALL
GASTEIGER

@<TRIPOS>ATOM
      1 C          -3.8925    0.8742   -1.3606 C.ar    1  UNL1        0.0295
      2 C          -2.5969    1.3653   -1.4116 C.ar    1  UNL1       -0.0196
      3 C          -1.6517    0.6025   -0.7291 C.ar    1  UNL1        0.0504
      4 N          -0.2985    0.7851   -0.5768 N.ar    1  UNL1       -0.3535
      5 C           0.2512   -0.2159    0.1942 C.ar    1  UNL1        0.0584
      6 C           1.5659   -0.4479    0.6145 C.ar    1  UNL1        0.0287
      7 C           2.6263    0.4650    0.2898 C.ar    1  UNL1        0.0442
      8 C           2.7485    1.8575    0.4754 C.ar    1  UNL1        0.0778
      9 N           3.9067    2.3281    0.0069 N.ar    1  UNL1       -0.0862
     10 O           4.5805    1.2187   -0.4812 O.2     1  UNL1       -0.3623
     11 C           3.8136    0.1126   -0.3040 C.ar    1  UNL1        0.1320
     12 C           1.7538   -1.6054    1.3620 C.ar    1  UNL1        0.0374
     13 N           0.7754   -2.4772    1.6973 N.ar    1  UNL1       -0.2619
     14 C          -0.4931   -2.2277    1.2888 C.ar    1  UNL1        0.0374
     15 C          -0.7886   -1.0910    0.5231 C.ar    1  UNL1        0.0275
     16 C          -1.9900   -0.5672   -0.0504 C.ar    1  UNL1        0.0269
     17 C          -3.3292   -0.9787   -0.0620 C.ar    1  UNL1        0.0373
     18 N          -4.2684   -0.2522   -0.7165 N.ar    1  UNL1       -0.2625
     19 H          -4.7004    1.4010   -1.8629 H       1  UNL1        0.0830
     20 H          -2.3495    2.2737   -1.9450 H       1  UNL1        0.0653
     21 H           0.2237    1.5456   -0.9893 H       1  UNL1        0.1659
     22 H           2.0529    2.5488    0.9306 H       1  UNL1        0.0870
     23 H           4.2458   -0.8127   -0.6569 H       1  UNL1        0.1064
     24 H           2.7369   -1.8742    1.7420 H       1  UNL1        0.0836
     25 H          -1.2430   -2.9534    1.5843 H       1  UNL1        0.0836
     26 H          -3.6794   -1.8750    0.4373 H       1  UNL1        0.0836
@<TRIPOS>BOND
     1     1     2   ar
     2     2     3   ar
     3     3     4   ar
     4     4     5   ar
     5     5     6   ar
     6     6     7    1
     7     7     8   ar
     8     8     9   ar
     9     9    10   ar
    10    10    11   ar
    11     6    12   ar
    12    12    13   ar
    13    13    14   ar
    14    14    15   ar
    15    15    16   ar
    16    16    17   ar
    17    17    18   ar
    18    18     1   ar
    19    16     3   ar
    20    15     5   ar
    21    11     7   ar
    22     1    19    1
    23     2    20    1
    24     4    21    1
    25     8    22    1
    26    11    23    1
    27    12    24    1
    28    14    25    1
    29    17    26    1
