@<TRIPOS>MOLECULE
*****
 44 51 0 0 0
SMALL
GASTEIGER

@<TRIPOS>ATOM
      1 C           6.9292   -0.2627    0.2835 C.ar    1  UNL1        0.0946
      2 C           6.3564    0.8851    0.7894 C.ar    1  UNL1        0.0002
      3 C           4.9825    0.6849    0.5417 C.ar    1  UNL1        0.0861
      4 N           3.7315    1.2605    0.6914 N.ar    1  UNL1       -0.3511
      5 C           2.7620    0.4093    0.1652 C.ar    1  UNL1        0.0596
      6 C           3.4817   -0.6813   -0.2961 C.ar    1  UNL1        0.0539
      7 C           2.8634   -1.7773   -0.9041 C.ar    1  UNL1        0.0331
      8 C           3.3406   -2.9353   -1.4243 C.ar    1  UNL1        0.1002
      9 O           2.2585   -3.6416   -1.8890 O.2     1  UNL1       -0.4698
     10 C           1.1334   -2.8896   -1.6382 C.ar    1  UNL1        0.1000
     11 C           1.4675   -1.7048   -1.0183 C.ar    1  UNL1        0.0284
     12 C           0.6075   -0.6591   -0.5947 C.ar    1  UNL1       -0.0040
     13 C          -0.8237   -0.6900   -0.7634 C.ar    1  UNL1       -0.0449
     14 C          -1.6856    0.3449   -0.3400 C.ar    1  UNL1       -0.0085
     15 C          -3.1216    0.2950   -0.5180 C.ar    1  UNL1       -0.0091
     16 C          -3.7751    0.6114   -1.7370 C.ar    1  UNL1       -0.0534
     17 C          -5.1946    0.5632   -1.9269 C.ar    1  UNL1       -0.0606
     18 C          -6.1117    0.1903   -0.9217 C.ar    1  UNL1       -0.0535
     19 C          -5.4688   -0.1270    0.2745 C.ar    1  UNL1       -0.0103
     20 C          -6.1547   -0.5229    1.3959 C.ar    1  UNL1       -0.0166
     21 S          -5.0826   -0.8458    2.6999 S.2     1  UNL1       -0.1039
     22 C          -3.6975   -0.4560    1.7575 C.ar    1  UNL1       -0.0160
     23 C          -4.0406   -0.0818    0.4783 C.ar    1  UNL1       -0.0032
     24 C          -0.9894    1.4136    0.2566 C.ar    1  UNL1       -0.0025
     25 C          -1.6227    2.5402    0.7333 C.ar    1  UNL1       -0.0160
     26 S          -0.5169    3.6596    1.4033 S.2     1  UNL1       -0.1038
     27 C           0.8244    2.6454    1.0532 C.ar    1  UNL1       -0.0159
     28 C           0.4585    1.4697    0.4384 C.ar    1  UNL1       -0.0006
     29 C           1.3417    0.4454    0.0296 C.ar    1  UNL1        0.0151
     30 C           4.8256   -0.5124   -0.0675 C.ar    1  UNL1        0.1606
     31 O           6.0176   -1.1320   -0.2451 O.2     1  UNL1       -0.4607
     32 H           7.9544   -0.6040    0.2257 H       1  UNL1        0.1030
     33 H           6.8595    1.7184    1.2562 H       1  UNL1        0.0670
     34 H           3.6011    2.1629    1.1248 H       1  UNL1        0.1660
     35 H           4.3089   -3.3983   -1.5485 H       1  UNL1        0.1036
     36 H           0.2083   -3.3453   -1.9613 H       1  UNL1        0.1036
     37 H          -1.2777   -1.5599   -1.2386 H       1  UNL1        0.0630
     38 H          -3.1641    0.9165   -2.5886 H       1  UNL1        0.0624
     39 H          -5.5862    0.8314   -2.9090 H       1  UNL1        0.0618
     40 H          -7.1806    0.1596   -1.0856 H       1  UNL1        0.0624
     41 H          -7.2204   -0.6447    1.5327 H       1  UNL1        0.0699
     42 H          -2.7156   -0.5254    2.2058 H       1  UNL1        0.0700
     43 H          -2.6782    2.7777    0.7316 H       1  UNL1        0.0700
     44 H           1.7941    3.0123    1.3367 H       1  UNL1        0.0700
@<TRIPOS>BOND
     1     1     2   ar
     2     2     3   ar
     3     3     4   ar
     4     4     5   ar
     5     5     6   ar
     6     6     7   ar
     7     7     8   ar
     8     8     9   ar
     9     9    10   ar
    10    10    11   ar
    11    11    12   ar
    12    12    13   ar
    13    13    14   ar
    14    14    15    1
    15    15    16   ar
    16    16    17   ar
    17    17    18   ar
    18    18    19   ar
    19    19    20   ar
    20    20    21   ar
    21    21    22   ar
    22    22    23   ar
    23    14    24   ar
    24    24    25   ar
    25    25    26   ar
    26    26    27   ar
    27    27    28   ar
    28    28    29   ar
    29     6    30   ar
    30    30    31   ar
    31    31     1   ar
    32    30     3   ar
    33    29     5   ar
    34    11     7   ar
    35    29    12   ar
    36    23    15   ar
    37    28    24   ar
    38    23    19   ar
    39     1    32    1
    40     2    33    1
    41     4    34    1
    42     8    35    1
    43    10    36    1
    44    13    37    1
    45    16    38    1
    46    17    39    1
    47    18    40    1
    48    20    41    1
    49    22    42    1
    50    25    43    1
    51    27    44    1
