@<TRIPOS>MOLECULE
*****
 26 29 0 0 0
SMALL
GASTEIGER

@<TRIPOS>ATOM
      1 C           3.8548    0.2241    1.7342 C.ar    1  UNL1        0.0295
      2 C           2.5299    0.5634    1.9612 C.ar    1  UNL1       -0.0196
      3 C           1.6484    0.1993    0.9462 C.ar    1  UNL1        0.0504
      4 N           0.2923    0.3732    0.8357 N.ar    1  UNL1       -0.3535
      5 C          -0.1809   -0.1462   -0.3496 C.ar    1  UNL1        0.0598
      6 C          -1.4822   -0.1877   -0.8676 C.ar    1  UNL1        0.0428
      7 C          -2.5963    0.3783   -0.1217 C.ar    1  UNL1        0.0815
      8 C          -3.9100    0.3817   -0.5549 C.ar    1  UNL1        0.0032
      9 S          -4.9219    1.1406    0.6063 S.2     1  UNL1       -0.0833
     10 C          -3.5507    1.4085    1.5951 C.ar    1  UNL1        0.0654
     11 N          -2.4016    0.9757    1.1244 N.ar    1  UNL1       -0.2473
     12 C          -1.5739   -0.8025   -2.1136 C.ar    1  UNL1        0.0387
     13 N          -0.5368   -1.3307   -2.8105 N.ar    1  UNL1       -0.2619
     14 C           0.7075   -1.2713   -2.2763 C.ar    1  UNL1        0.0374
     15 C           0.9187   -0.6751   -1.0269 C.ar    1  UNL1        0.0276
     16 C           2.0732   -0.4569   -0.2089 C.ar    1  UNL1        0.0270
     17 C           3.4360   -0.7542   -0.3402 C.ar    1  UNL1        0.0373
     18 N           4.3152   -0.4106    0.6336 N.ar    1  UNL1       -0.2625
     19 H           4.6174    0.4671    2.4701 H       1  UNL1        0.0830
     20 H           2.2126    1.0726    2.8616 H       1  UNL1        0.0653
     21 H          -0.3118    0.8197    1.5160 H       1  UNL1        0.1659
     22 H          -4.3373   -0.0074   -1.4672 H       1  UNL1        0.0715
     23 H          -3.6342    1.9068    2.5523 H       1  UNL1        0.0907
     24 H          -2.5255   -0.9015   -2.6281 H       1  UNL1        0.0837
     25 H           1.5056   -1.7057   -2.8678 H       1  UNL1        0.0836
     26 H           3.8516   -1.2612   -1.2033 H       1  UNL1        0.0836
@<TRIPOS>BOND
     1     1     2   ar
     2     2     3   ar
     3     3     4   ar
     4     4     5   ar
     5     5     6   ar
     6     6     7    1
     7     7     8   ar
     8     8     9   ar
     9     9    10   ar
    10    10    11   ar
    11     6    12   ar
    12    12    13   ar
    13    13    14   ar
    14    14    15   ar
    15    15    16   ar
    16    16    17   ar
    17    17    18   ar
    18    18     1   ar
    19    16     3   ar
    20    15     5   ar
    21    11     7   ar
    22     1    19    1
    23     2    20    1
    24     4    21    1
    25     8    22    1
    26    10    23    1
    27    12    24    1
    28    14    25    1
    29    17    26    1
