@<TRIPOS>MOLECULE
*****
 25 28 0 0 0
SMALL
GASTEIGER

@<TRIPOS>ATOM
      1 C          -3.7812    1.5388   -0.1718 C.ar    1  UNL1        0.0295
      2 C          -2.4568    1.9201   -0.0211 C.ar    1  UNL1       -0.0196
      3 C          -1.5324    0.8819   -0.1105 C.ar    1  UNL1        0.0504
      4 N          -0.1636    0.8940   -0.0117 N.ar    1  UNL1       -0.3534
      5 C           0.3543   -0.3736   -0.1640 C.ar    1  UNL1        0.0614
      6 C           1.6778   -0.8312   -0.1385 C.ar    1  UNL1        0.0644
      7 C           2.7900    0.0703    0.0747 C.ar    1  UNL1        0.2053
      8 N           2.6186    1.4312    0.2655 N.ar    1  UNL1       -0.1941
      9 C           3.8523    1.8450    0.4146 C.ar    1  UNL1        0.2147
     10 O           4.7777    0.8588    0.3331 O.2     1  UNL1       -0.3411
     11 N           4.0745   -0.3224    0.1071 N.ar    1  UNL1       -0.0563
     12 C           1.8218   -2.2002   -0.3325 C.ar    1  UNL1        0.0404
     13 N           0.8015   -3.0706   -0.5345 N.ar    1  UNL1       -0.2618
     14 C          -0.4694   -2.5982   -0.5541 C.ar    1  UNL1        0.0374
     15 C          -0.7269   -1.2332   -0.3688 C.ar    1  UNL1        0.0276
     16 C          -1.9176   -0.4398   -0.3348 C.ar    1  UNL1        0.0270
     17 C          -3.2835   -0.7191   -0.4732 C.ar    1  UNL1        0.0373
     18 N          -4.2032    0.2741   -0.3903 N.ar    1  UNL1       -0.2625
     19 H          -4.5755    2.2792   -0.1177 H       1  UNL1        0.0830
     20 H          -2.1719    2.9494    0.1526 H       1  UNL1        0.0653
     21 H           0.4089    1.7136    0.1511 H       1  UNL1        0.1659
     22 H           4.2196    2.8449    0.5898 H       1  UNL1        0.1283
     23 H           2.8060   -2.6650   -0.3321 H       1  UNL1        0.0837
     24 H          -1.2510   -3.3316   -0.7189 H       1  UNL1        0.0836
     25 H          -3.6703   -1.7163   -0.6494 H       1  UNL1        0.0836
@<TRIPOS>BOND
     1     1     2   ar
     2     2     3   ar
     3     3     4   ar
     4     4     5   ar
     5     5     6   ar
     6     6     7    1
     7     7     8   ar
     8     8     9   ar
     9     9    10   ar
    10    10    11   ar
    11     6    12   ar
    12    12    13   ar
    13    13    14   ar
    14    14    15   ar
    15    15    16   ar
    16    16    17   ar
    17    17    18   ar
    18    18     1   ar
    19    16     3   ar
    20    15     5   ar
    21    11     7   ar
    22     1    19    1
    23     2    20    1
    24     4    21    1
    25     9    22    1
    26    12    23    1
    27    14    24    1
    28    17    25    1
