@<TRIPOS>MOLECULE
*****
 43 49 0 0 0
SMALL
GASTEIGER

@<TRIPOS>ATOM
      1 C           7.0092   -0.0035   -0.1588 C.ar    1  UNL1        0.0042
      2 C           6.2882    0.9733    0.5018 C.ar    1  UNL1       -0.0204
      3 C           4.9350    0.5906    0.3384 C.ar    1  UNL1        0.0653
      4 N           3.6610    0.9694    0.6522 N.ar    1  UNL1       -0.3524
      5 C           2.7751    0.0508    0.1230 C.ar    1  UNL1        0.0574
      6 C           3.5201   -0.9351   -0.5453 C.ar    1  UNL1        0.0242
      7 C           2.8701   -2.0028   -1.1841 C.ar    1  UNL1       -0.0500
      8 C           1.4717   -2.0765   -1.1497 C.ar    1  UNL1       -0.0532
      9 C           0.6971   -1.1150   -0.4951 C.ar    1  UNL1       -0.0147
     10 C          -0.7375   -1.2470   -0.4963 C.ar    1  UNL1       -0.0456
     11 C          -1.6462   -0.3470    0.1186 C.ar    1  UNL1       -0.0076
     12 C          -3.0831   -0.5076    0.1032 C.ar    1  UNL1       -0.0090
     13 C          -3.7719   -1.4856    0.8670 C.ar    1  UNL1       -0.0534
     14 C          -5.1940   -1.6625    0.8607 C.ar    1  UNL1       -0.0606
     15 C          -6.0804   -0.8850    0.0863 C.ar    1  UNL1       -0.0535
     16 C          -5.4040    0.0705   -0.6715 C.ar    1  UNL1       -0.0103
     17 C          -6.0565    0.9396   -1.5106 C.ar    1  UNL1       -0.0166
     18 S          -4.9491    1.9830   -2.3100 S.2     1  UNL1       -0.1039
     19 C          -3.5940    1.2649   -1.5319 C.ar    1  UNL1       -0.0160
     20 C          -3.9726    0.2589   -0.6721 C.ar    1  UNL1       -0.0032
     21 C          -0.9611    0.6961    0.7487 C.ar    1  UNL1        0.0078
     22 C          -1.5226    1.7305    1.4577 C.ar    1  UNL1        0.0100
     23 N          -0.4930    2.5229    1.9033 N.ar    1  UNL1       -0.3659
     24 C           0.7193    2.0042    1.4949 C.ar    1  UNL1        0.0101
     25 C           0.4659    0.8604    0.7735 C.ar    1  UNL1        0.0097
     26 C           1.3705   -0.0229    0.1582 C.ar    1  UNL1        0.0152
     27 C           4.8766   -0.5531   -0.3824 C.ar    1  UNL1        0.0721
     28 N           6.1522   -0.9337   -0.6980 N.ar    1  UNL1       -0.3590
     29 H           8.0773   -0.1158   -0.2924 H       1  UNL1        0.0807
     30 H           6.6864    1.8328    1.0226 H       1  UNL1        0.0653
     31 H           3.4477    1.7970    1.1870 H       1  UNL1        0.1660
     32 H           3.4413   -2.7669   -1.7022 H       1  UNL1        0.0625
     33 H           0.9928   -2.9141   -1.6539 H       1  UNL1        0.0624
     34 H          -1.1704   -2.1037   -1.0179 H       1  UNL1        0.0630
     35 H          -3.1858   -2.1446    1.5102 H       1  UNL1        0.0624
     36 H          -5.6120   -2.4457    1.4941 H       1  UNL1        0.0618
     37 H          -7.1516   -1.0347    0.0942 H       1  UNL1        0.0624
     38 H          -7.1160    1.0265   -1.7077 H       1  UNL1        0.0699
     39 H          -2.5998    1.6296   -1.7527 H       1  UNL1        0.0700
     40 H          -2.5502    1.9800    1.6869 H       1  UNL1        0.0813
     41 H          -0.6074    3.3634    2.4549 H       1  UNL1        0.1648
     42 H           1.6229    2.5193    1.7756 H       1  UNL1        0.0813
     43 H           6.3786   -1.7610   -1.2355 H       1  UNL1        0.1654
@<TRIPOS>BOND
     1     1     2   ar
     2     2     3   ar
     3     3     4   ar
     4     4     5   ar
     5     5     6   ar
     6     6     7   ar
     7     7     8   ar
     8     8     9   ar
     9     9    10   ar
    10    10    11   ar
    11    11    12    1
    12    12    13   ar
    13    13    14   ar
    14    14    15   ar
    15    15    16   ar
    16    16    17   ar
    17    17    18   ar
    18    18    19   ar
    19    19    20   ar
    20    11    21   ar
    21    21    22   ar
    22    22    23   ar
    23    23    24   ar
    24    24    25   ar
    25    25    26   ar
    26     6    27   ar
    27    27    28   ar
    28    28     1   ar
    29    27     3   ar
    30    26     5   ar
    31    26     9   ar
    32    20    12   ar
    33    25    21   ar
    34    20    16   ar
    35     1    29    1
    36     2    30    1
    37     4    31    1
    38     7    32    1
    39     8    33    1
    40    10    34    1
    41    13    35    1
    42    14    36    1
    43    15    37    1
    44    17    38    1
    45    19    39    1
    46    22    40    1
    47    23    41    1
    48    24    42    1
    49    28    43    1
