@<TRIPOS>MOLECULE
*****
 36 41 0 0 0
SMALL
GASTEIGER

@<TRIPOS>ATOM
      1 C           6.3903    0.4321   -0.1078 C.ar    1  UNL1        0.0042
      2 C           5.7518   -0.7102   -0.5526 C.ar    1  UNL1       -0.0204
      3 C           4.3738   -0.4457   -0.3663 C.ar    1  UNL1        0.0653
      4 N           3.1370   -0.9997   -0.5308 N.ar    1  UNL1       -0.3524
      5 C           2.1874   -0.0917   -0.0994 C.ar    1  UNL1        0.0589
      6 C           2.8414    1.0615    0.3500 C.ar    1  UNL1        0.0243
      7 C           2.0915    2.1397    0.8452 C.ar    1  UNL1       -0.0500
      8 C           0.6922    2.0414    0.8803 C.ar    1  UNL1       -0.0532
      9 C           0.0201    0.8965    0.4332 C.ar    1  UNL1       -0.0131
     10 C          -1.3969    0.8301    0.4804 C.ar    1  UNL1       -0.0426
     11 C          -2.1887   -0.2727    0.0486 C.ar    1  UNL1        0.0291
     12 C          -3.6545   -0.2576    0.1379 C.ar    1  UNL1        0.0731
     13 C          -4.4992   -0.8603   -0.7939 C.ar    1  UNL1       -0.0356
     14 C          -5.8809   -0.7738   -0.6263 C.ar    1  UNL1       -0.0583
     15 C          -6.3933   -0.0828    0.4617 C.ar    1  UNL1       -0.0436
     16 C          -5.4977    0.5017    1.3369 C.ar    1  UNL1        0.0283
     17 N          -4.1549    0.4367    1.1954 N.ar    1  UNL1       -0.2549
     18 C          -1.4449   -1.3856   -0.4461 C.ar    1  UNL1        0.1097
     19 N          -1.9361   -2.5579   -0.8911 N.ar    1  UNL1       -0.1901
     20 S          -0.6518   -3.4984   -1.3355 S.2     1  UNL1        0.1165
     21 N           0.6070   -2.4782   -1.0037 N.ar    1  UNL1       -0.1901
     22 C           0.0723   -1.3447   -0.5067 C.ar    1  UNL1        0.1102
     23 C           0.7848   -0.1932   -0.0662 C.ar    1  UNL1        0.0343
     24 C           4.2228    0.7942    0.1624 C.ar    1  UNL1        0.0721
     25 N           5.4626    1.3486    0.3281 N.ar    1  UNL1       -0.3590
     26 H           7.4446    0.6724   -0.0641 H       1  UNL1        0.0807
     27 H           6.2170   -1.6008   -0.9515 H       1  UNL1        0.0653
     28 H           2.9594   -1.9231   -0.9066 H       1  UNL1        0.1660
     29 H           2.5833    3.0407    1.1992 H       1  UNL1        0.0625
     30 H           0.1294    2.8886    1.2699 H       1  UNL1        0.0624
     31 H          -1.9355    1.6951    0.8789 H       1  UNL1        0.0631
     32 H          -4.1037   -1.3892   -1.6549 H       1  UNL1        0.0639
     33 H          -6.5475   -1.2440   -1.3436 H       1  UNL1        0.0619
     34 H          -7.4620    0.0005    0.6220 H       1  UNL1        0.0633
     35 H          -5.8440    1.0570    2.2039 H       1  UNL1        0.0830
     36 H           5.6229    2.2729    0.7083 H       1  UNL1        0.1654
@<TRIPOS>BOND
     1     1     2   ar
     2     2     3   ar
     3     3     4   ar
     4     4     5   ar
     5     5     6   ar
     6     6     7   ar
     7     7     8   ar
     8     8     9   ar
     9     9    10   ar
    10    10    11   ar
    11    11    12    1
    12    12    13   ar
    13    13    14   ar
    14    14    15   ar
    15    15    16   ar
    16    16    17   ar
    17    11    18   ar
    18    18    19   ar
    19    19    20   ar
    20    20    21   ar
    21    21    22   ar
    22    22    23   ar
    23     6    24   ar
    24    24    25   ar
    25    25     1   ar
    26    24     3   ar
    27    23     5   ar
    28    23     9   ar
    29    17    12   ar
    30    22    18   ar
    31     1    26    1
    32     2    27    1
    33     4    28    1
    34     7    29    1
    35     8    30    1
    36    10    31    1
    37    13    32    1
    38    14    33    1
    39    15    34    1
    40    16    35    1
    41    25    36    1
