@<TRIPOS>MOLECULE
*****
 36 42 0 0 0
SMALL
GASTEIGER

@<TRIPOS>ATOM
      1 C           6.8178    1.4158    0.1504 C.ar    1  UNL1       -0.0217
      2 C           6.4030    0.0993    0.3266 C.ar    1  UNL1       -0.0307
      3 C           4.9870    0.0493    0.2778 C.ar    1  UNL1        0.0552
      4 N           3.9129   -0.7924    0.3582 N.ar    1  UNL1       -0.3528
      5 C           2.7493   -0.0908    0.2097 C.ar    1  UNL1        0.0636
      6 C           3.1273    1.2010    0.0345 C.ar    1  UNL1        0.0523
      7 S           1.9458    2.3727   -0.1849 S.2     1  UNL1       -0.0855
      8 C           0.7368    1.1029   -0.0464 C.ar    1  UNL1        0.0231
      9 C          -0.6764    1.2143   -0.1188 C.ar    1  UNL1       -0.0389
     10 C          -1.5241    0.0806    0.0093 C.ar    1  UNL1       -0.0065
     11 C          -2.9727    0.1921   -0.0553 C.ar    1  UNL1        0.0109
     12 C          -3.7393    0.7882    0.9746 C.ar    1  UNL1       -0.0518
     13 C          -5.1478    0.9190    0.9308 C.ar    1  UNL1       -0.0590
     14 C          -5.9244    0.4711   -0.1498 C.ar    1  UNL1       -0.0335
     15 C          -5.2191   -0.1285   -1.2200 C.ar    1  UNL1        0.1005
     16 N          -5.7723   -0.6171   -2.3405 N.ar    1  UNL1       -0.1908
     17 S          -4.5228   -1.1957   -3.2671 S.2     1  UNL1        0.1165
     18 N          -3.2269   -0.8601   -2.2892 N.ar    1  UNL1       -0.1902
     19 C          -3.7144   -0.2727   -1.1817 C.ar    1  UNL1        0.1076
     20 C          -0.8303   -1.1304    0.2234 C.ar    1  UNL1       -0.0024
     21 C          -1.4512   -2.3508    0.4009 C.ar    1  UNL1       -0.0160
     22 S          -0.3267   -3.6379    0.6444 S.2     1  UNL1       -0.1038
     23 C           1.0262   -2.5799    0.5249 C.ar    1  UNL1       -0.0159
     24 C           0.5796   -1.3093    0.3085 C.ar    1  UNL1       -0.0001
     25 C           1.3541   -0.1241    0.1596 C.ar    1  UNL1        0.0214
     26 C           4.4718    1.2817    0.0767 C.ar    1  UNL1        0.0512
     27 S           5.5258    2.5667   -0.0692 S.2     1  UNL1       -0.0940
     28 H           7.8344    1.7847    0.1363 H       1  UNL1        0.0694
     29 H           7.0717   -0.7381    0.4752 H       1  UNL1        0.0644
     30 H           3.9789   -1.7901    0.5041 H       1  UNL1        0.1660
     31 H          -1.1179    2.1953   -0.2882 H       1  UNL1        0.0635
     32 H          -3.2207    1.1657    1.8583 H       1  UNL1        0.0624
     33 H          -5.6525    1.3898    1.7752 H       1  UNL1        0.0618
     34 H          -7.0023    0.5775   -0.1713 H       1  UNL1        0.0640
     35 H          -2.5068   -2.5844    0.3987 H       1  UNL1        0.0700
     36 H           2.0263   -2.9709    0.6242 H       1  UNL1        0.0700
@<TRIPOS>BOND
     1     1     2   ar
     2     2     3   ar
     3     3     4   ar
     4     4     5   ar
     5     5     6   ar
     6     6     7   ar
     7     7     8   ar
     8     8     9   ar
     9     9    10   ar
    10    10    11    1
    11    11    12   ar
    12    12    13   ar
    13    13    14   ar
    14    14    15   ar
    15    15    16   ar
    16    16    17   ar
    17    17    18   ar
    18    18    19   ar
    19    10    20   ar
    20    20    21   ar
    21    21    22   ar
    22    22    23   ar
    23    23    24   ar
    24    24    25   ar
    25     6    26   ar
    26    26    27   ar
    27    27     1   ar
    28    26     3   ar
    29    25     5   ar
    30    25     8   ar
    31    19    11   ar
    32    24    20   ar
    33    19    15   ar
    34     1    28    1
    35     2    29    1
    36     4    30    1
    37     9    31    1
    38    12    32    1
    39    13    33    1
    40    14    34    1
    41    21    35    1
    42    23    36    1
