@<TRIPOS>MOLECULE
*****
 28 32 0 0 0
SMALL
GASTEIGER

@<TRIPOS>ATOM
      1 C           5.0554   -0.1242    0.4126 C.ar    1  UNL1        0.0042
      2 C           4.7467   -1.3838   -0.1102 C.ar    1  UNL1       -0.0203
      3 C           3.3376   -1.3849   -0.2428 C.ar    1  UNL1        0.0668
      4 N           2.1970   -2.0487   -0.6100 N.ar    1  UNL1       -0.3517
      5 C           1.1088   -1.2445   -0.3967 C.ar    1  UNL1        0.0674
      6 C          -0.2943   -1.0655   -0.4581 C.ar    1  UNL1       -0.0118
      7 C          -0.5359    0.2312    0.0277 C.ar    1  UNL1        0.0562
      8 N           0.6787    0.8236    0.3738 N.ar    1  UNL1       -0.3509
      9 C           1.6014   -0.0991    0.0985 C.ar    1  UNL1        0.0890
     10 C           2.9255   -0.1797    0.1911 C.ar    1  UNL1        0.0885
     11 N           3.9068    0.6294    0.6003 N.ar    1  UNL1       -0.3578
     12 C          -1.7847    0.9381    0.1877 C.ar    1  UNL1        0.0438
     13 S          -1.8314    2.5574    0.8180 S.2     1  UNL1       -0.0935
     14 C          -3.5397    2.6767    0.7047 C.ar    1  UNL1       -0.0094
     15 C          -4.0624    1.5218    0.2030 C.ar    1  UNL1        0.0270
     16 S          -5.7747    1.0719   -0.1337 S.2     1  UNL1       -0.0961
     17 C          -5.1048   -0.4572   -0.6703 C.ar    1  UNL1       -0.0231
     18 C          -3.7132   -0.5865   -0.5906 C.ar    1  UNL1       -0.0458
     19 C          -3.0703    0.5765   -0.0745 C.ar    1  UNL1        0.0054
     20 H           6.0160    0.3029    0.6701 H       1  UNL1        0.0807
     21 H           5.4477   -2.1701   -0.3528 H       1  UNL1        0.0653
     22 H           2.1652   -2.9877   -0.9811 H       1  UNL1        0.1660
     23 H          -1.0204   -1.7825   -0.8073 H       1  UNL1        0.0660
     24 H           0.8326    1.7486    0.7509 H       1  UNL1        0.1660
     25 H           3.8119    1.5700    0.9602 H       1  UNL1        0.1654
     26 H          -4.0835    3.5629    1.0011 H       1  UNL1        0.0705
     27 H          -5.8022   -1.2027   -1.0278 H       1  UNL1        0.0694
     28 H          -3.2138   -1.4941   -0.8995 H       1  UNL1        0.0629
@<TRIPOS>BOND
     1     1     2   ar
     2     2     3   ar
     3     3     4   ar
     4     4     5   ar
     5     5     6   ar
     6     6     7   ar
     7     7     8   ar
     8     8     9   ar
     9     9    10   ar
    10    10    11   ar
    11     7    12    1
    12    12    13   ar
    13    13    14   ar
    14    14    15   ar
    15    15    16   ar
    16    16    17   ar
    17    17    18   ar
    18    18    19   ar
    19    11     1   ar
    20    19    12   ar
    21    10     3   ar
    22    19    15   ar
    23     9     5   ar
    24     1    20    1
    25     2    21    1
    26     4    22    1
    27     6    23    1
    28     8    24    1
    29    11    25    1
    30    14    26    1
    31    17    27    1
    32    18    28    1
