@<TRIPOS>MOLECULE
*****
 46 51 0 0 0
SMALL
GASTEIGER

@<TRIPOS>ATOM
      1 C           7.9327    0.7691    0.9920 C.ar    1  UNL1        0.0295
      2 C           6.8461    1.2038    1.7357 C.ar    1  UNL1       -0.0196
      3 C           5.6010    0.8614    1.2127 C.ar    1  UNL1        0.0504
      4 N           4.3335    1.1208    1.6775 N.ar    1  UNL1       -0.3540
      5 C           3.3872    0.5913    0.8326 C.ar    1  UNL1        0.0510
      6 C           1.9933    0.6115    0.9034 C.ar    1  UNL1       -0.0117
      7 C           1.3113   -0.0334   -0.1307 C.ar    1  UNL1        0.0730
      8 C          -0.1657   -0.0929   -0.1834 C.ar    1  UNL1        0.0010
      9 C          -0.8209   -1.2187   -0.7049 C.ar    1  UNL1       -0.0476
     10 C          -2.2242   -1.2998   -0.7699 C.ar    1  UNL1       -0.0254
     11 C          -3.0256   -0.2511   -0.2853 C.ar    1  UNL1        0.0361
     12 C          -2.3803    0.8828    0.2405 C.ar    1  UNL1       -0.0254
     13 C          -0.9743    0.9600    0.2717 C.ar    1  UNL1       -0.0476
     14 C          -3.1884    2.0533    0.7411 C.3     1  UNL1       -0.0245
     15 C          -4.5901    1.6208    1.1470 C.3     1  UNL1       -0.0332
     16 C          -5.2268    0.8248    0.0185 C.3     1  UNL1        0.0125
     17 N          -4.4106   -0.3315   -0.3257 N.pl3   1  UNL1       -0.3294
     18 C          -5.0682   -1.5542   -0.7694 C.3     1  UNL1        0.0125
     19 C          -4.2612   -2.2481   -1.8555 C.3     1  UNL1       -0.0332
     20 C          -2.8586   -2.5411   -1.3427 C.3     1  UNL1       -0.0245
     21 N           1.9571   -0.6609   -1.1488 N.ar    1  UNL1       -0.2542
     22 C           3.3125   -0.6660   -1.2023 C.ar    1  UNL1        0.0380
     23 C           4.0666   -0.0367   -0.2081 C.ar    1  UNL1        0.0270
     24 C           5.4661    0.1353    0.0291 C.ar    1  UNL1        0.0269
     25 C           6.6290   -0.2569   -0.6463 C.ar    1  UNL1        0.0373
     26 N           7.8528    0.0644   -0.1578 N.ar    1  UNL1       -0.2625
     27 H           8.9459    0.9881    1.3201 H       1  UNL1        0.0830
     28 H           6.9670    1.7660    2.6522 H       1  UNL1        0.0653
     29 H           4.1260    1.6318    2.5236 H       1  UNL1        0.1659
     30 H           1.4748    1.0859    1.7269 H       1  UNL1        0.0660
     31 H          -0.2249   -2.0519   -1.0763 H       1  UNL1        0.0627
     32 H          -0.5150    1.8706    0.6502 H       1  UNL1        0.0627
     33 H          -3.2415    2.8067   -0.0543 H       1  UNL1        0.0314
     34 H          -2.6953    2.5127    1.6058 H       1  UNL1        0.0314
     35 H          -4.5413    1.0027    2.0530 H       1  UNL1        0.0283
     36 H          -5.2003    2.4990    1.3846 H       1  UNL1        0.0283
     37 H          -5.3558    1.4550   -0.8700 H       1  UNL1        0.0464
     38 H          -6.2267    0.5039    0.3343 H       1  UNL1        0.0464
     39 H          -6.0671   -1.3292   -1.1617 H       1  UNL1        0.0464
     40 H          -5.2037   -2.2216    0.0905 H       1  UNL1        0.0464
     41 H          -4.2069   -1.6046   -2.7434 H       1  UNL1        0.0283
     42 H          -4.7528   -3.1792   -2.1580 H       1  UNL1        0.0283
     43 H          -2.8939   -3.3095   -0.5610 H       1  UNL1        0.0314
     44 H          -2.2533   -2.9307   -2.1696 H       1  UNL1        0.0314
     45 H           3.7551   -1.1807   -2.0474 H       1  UNL1        0.0836
     46 H           6.6154   -0.8229   -1.5707 H       1  UNL1        0.0836
@<TRIPOS>BOND
     1     1     2   ar
     2     2     3   ar
     3     3     4   ar
     4     4     5   ar
     5     5     6   ar
     6     6     7   ar
     7     7     8    1
     8     8     9   ar
     9     9    10   ar
    10    10    11   ar
    11    11    12   ar
    12    12    13   ar
    13    12    14    1
    14    14    15    1
    15    15    16    1
    16    16    17    1
    17    17    18    1
    18    18    19    1
    19    19    20    1
    20     7    21   ar
    21    21    22   ar
    22    22    23   ar
    23    23    24   ar
    24    24    25   ar
    25    25    26   ar
    26    26     1   ar
    27    24     3   ar
    28    23     5   ar
    29    13     8   ar
    30    20    10    1
    31    17    11    1
    32     1    27    1
    33     2    28    1
    34     4    29    1
    35     6    30    1
    36     9    31    1
    37    13    32    1
    38    14    33    1
    39    14    34    1
    40    15    35    1
    41    15    36    1
    42    16    37    1
    43    16    38    1
    44    18    39    1
    45    18    40    1
    46    19    41    1
    47    19    42    1
    48    20    43    1
    49    20    44    1
    50    22    45    1
    51    25    46    1
