@<TRIPOS>MOLECULE
*****
 41 47 0 0 0
SMALL
GASTEIGER

@<TRIPOS>ATOM
      1 SI         -4.0038   -3.4218   -1.1241 Si      1  UNL1        0.0000
      2 C          -4.8864   -1.7931   -0.8512 C.2     1  UNL1        0.0000
      3 C          -4.0197   -0.8197   -0.5044 C.ar    1  UNL1        0.0000
      4 C          -4.3742    0.5796   -0.2175 C.ar    1  UNL1        0.0000
      5 C          -5.7009    1.2051   -0.2431 C.2     1  UNL1        0.0000
      6 C          -5.7289    2.5161    0.0656 C.2     1  UNL1        0.0000
      7 SI         -3.9951    3.1592    0.4470 Si      1  UNL1        0.0000
      8 C          -3.3844    1.4511    0.1204 C.ar    1  UNL1        0.0000
      9 C          -2.0344    1.0186    0.1950 C.ar    1  UNL1        0.0000
     10 O          -0.9430    1.7858    0.5213 O.2     1  UNL1        0.0000
     11 C           0.1326    0.9448    0.4623 C.ar    1  UNL1        0.0000
     12 C           1.5071    1.1427    0.6890 C.ar    1  UNL1        0.0000
     13 C           2.1752   -0.0529    0.4877 C.ar    1  UNL1        0.0000
     14 S           1.1293   -1.3619    0.0479 S.2     1  UNL1        0.0000
     15 C          -0.2433   -0.3111    0.1149 C.ar    1  UNL1        0.0000
     16 C          -1.6383   -0.2873   -0.0638 C.ar    1  UNL1        0.0000
     17 C          -2.5949   -1.2750   -0.4253 C.ar    1  UNL1        0.0000
     18 C          -2.3922   -2.5744   -0.7092 C.2     1  UNL1        0.0000
     19 C           3.6013   -0.3143    0.6051 C.ar    1  UNL1        0.0000
     20 C           4.1677   -1.1860    1.5675 C.ar    1  UNL1        0.0000
     21 C           5.5740   -1.4244    1.6985 C.ar    1  UNL1        0.0000
     22 C           6.5556   -0.8182    0.8853 C.ar    1  UNL1        0.0000
     23 C           5.9931    0.0372   -0.0627 C.ar    1  UNL1        0.0000
     24 C           6.7554    0.7323   -0.9685 C.ar    1  UNL1        0.0000
     25 S           5.7726    1.6839   -2.0081 S.2     1  UNL1        0.0000
     26 C           4.3234    1.1593   -1.2435 C.ar    1  UNL1        0.0000
     27 C           4.5775    0.2891   -0.2078 C.ar    1  UNL1        0.0000
     28 H          -4.3841   -4.4412   -0.1173 H       1  UNL1        0.0000
     29 H          -4.0657   -3.8632   -2.5379 H       1  UNL1        0.0000
     30 H          -5.9542   -1.7135   -0.9732 H       1  UNL1        0.0000
     31 H          -6.5856    0.6349   -0.4954 H       1  UNL1        0.0000
     32 H          -6.5922    3.1609    0.1055 H       1  UNL1        0.0000
     33 H          -3.5810    4.1694   -0.5600 H       1  UNL1        0.0000
     34 H          -3.9003    3.5915    1.8647 H       1  UNL1        0.0000
     35 H           1.9708    2.0768    0.9755 H       1  UNL1        0.0000
     36 H          -1.4567   -3.1096   -0.7146 H       1  UNL1        0.0000
     37 H           3.5027   -1.7058    2.2587 H       1  UNL1        0.0000
     38 H           5.9029   -2.1154    2.4757 H       1  UNL1        0.0000
     39 H           7.6135   -1.0135    1.0015 H       1  UNL1        0.0000
     40 H           7.8299    0.7387   -1.0887 H       1  UNL1        0.0000
     41 H           3.3746    1.5251   -1.6107 H       1  UNL1        0.0000
@<TRIPOS>BOND
     1     1     2    1
     2     2     3    2
     3     3     4   ar
     4     4     5    1
     5     5     6    2
     6     6     7    1
     7     7     8    1
     8     8     9   ar
     9     9    10   ar
    10    10    11   ar
    11    11    12   ar
    12    12    13   ar
    13    13    14   ar
    14    14    15   ar
    15    15    16   ar
    16    16    17   ar
    17    17    18    2
    18    13    19    1
    19    19    20   ar
    20    20    21   ar
    21    21    22   ar
    22    22    23   ar
    23    23    24   ar
    24    24    25   ar
    25    25    26   ar
    26    26    27   ar
    27    18     1    1
    28    27    19   ar
    29    17     3   ar
    30    27    23   ar
    31     8     4   ar
    32    16     9   ar
    33    15    11   ar
    34     1    28    1
    35     1    29    1
    36     2    30    1
    37     5    31    1
    38     6    32    1
    39     7    33    1
    40     7    34    1
    41    12    35    1
    42    18    36    1
    43    20    37    1
    44    21    38    1
    45    22    39    1
    46    24    40    1
    47    26    41    1
