@<TRIPOS>MOLECULE
*****
 37 42 0 0 0
SMALL
GASTEIGER

@<TRIPOS>ATOM
      1 C           6.9658    0.4819   -2.0089 C.ar    1  UNL1        0.0295
      2 C           5.8489    0.0685   -2.7190 C.ar    1  UNL1       -0.0196
      3 C           4.6560    0.0828   -1.9993 C.ar    1  UNL1        0.0504
      4 N           3.3790   -0.2565   -2.3786 N.ar    1  UNL1       -0.3540
      5 C           2.4997   -0.0877   -1.3352 C.ar    1  UNL1        0.0511
      6 C           1.1234   -0.3056   -1.2651 C.ar    1  UNL1       -0.0103
      7 C           0.5385   -0.0280   -0.0349 C.ar    1  UNL1        0.0891
      8 C          -0.8912   -0.2029    0.2049 C.ar    1  UNL1        0.0660
      9 C          -1.9340   -0.6323   -0.5989 C.ar    1  UNL1       -0.0271
     10 C          -3.1352   -0.6058    0.1650 C.ar    1  UNL1        0.0011
     11 C          -4.4782   -0.9233   -0.1062 C.ar    1  UNL1       -0.0418
     12 C          -5.4548   -0.7860    0.8900 C.ar    1  UNL1        0.0208
     13 C          -6.8549   -0.9998    0.9872 C.ar    1  UNL1       -0.0161
     14 C          -7.2111   -0.6648    2.2742 C.ar    1  UNL1        0.0931
     15 O          -6.1248   -0.2572    2.9825 O.2     1  UNL1       -0.4629
     16 C          -5.0586   -0.3312    2.1408 C.ar    1  UNL1        0.1368
     17 C          -3.7457   -0.0086    2.4459 C.ar    1  UNL1        0.0051
     18 C          -2.7941   -0.1535    1.4388 C.ar    1  UNL1        0.0505
     19 N          -1.4429    0.0809    1.4361 N.ar    1  UNL1       -0.3529
     20 N           1.2194    0.4246    1.0478 N.ar    1  UNL1       -0.2528
     21 C           2.5572    0.6282    0.9531 C.ar    1  UNL1        0.0381
     22 C           3.2348    0.3764   -0.2456 C.ar    1  UNL1        0.0270
     23 C           4.5980    0.4844   -0.6646 C.ar    1  UNL1        0.0269
     24 C           5.7858    0.8843   -0.0386 C.ar    1  UNL1        0.0373
     25 N           6.9596    0.8792   -0.7176 N.ar    1  UNL1       -0.2625
     26 H           7.9427    0.5049   -2.4858 H       1  UNL1        0.0830
     27 H           5.9102   -0.2402   -3.7542 H       1  UNL1        0.0653
     28 H           3.1221   -0.5850   -3.2986 H       1  UNL1        0.1659
     29 H           0.5551   -0.6657   -2.1118 H       1  UNL1        0.0660
     30 H          -1.8527   -0.9373   -1.6333 H       1  UNL1        0.0645
     31 H          -4.7591   -1.2769   -1.0942 H       1  UNL1        0.0631
     32 H          -7.5215   -1.3542    0.2145 H       1  UNL1        0.0655
     33 H          -8.1469   -0.6608    2.8153 H       1  UNL1        0.1029
     34 H          -3.4794    0.3434    3.4365 H       1  UNL1        0.0675
     35 H          -0.8945    0.4172    2.2169 H       1  UNL1        0.1660
     36 H           3.0522    0.9901    1.8471 H       1  UNL1        0.0836
     37 H           5.8314    1.2108    0.9940 H       1  UNL1        0.0836
@<TRIPOS>BOND
     1     1     2   ar
     2     2     3   ar
     3     3     4   ar
     4     4     5   ar
     5     5     6   ar
     6     6     7   ar
     7     7     8    1
     8     8     9   ar
     9     9    10   ar
    10    10    11   ar
    11    11    12   ar
    12    12    13   ar
    13    13    14   ar
    14    14    15   ar
    15    15    16   ar
    16    16    17   ar
    17    17    18   ar
    18    18    19   ar
    19     7    20   ar
    20    20    21   ar
    21    21    22   ar
    22    22    23   ar
    23    23    24   ar
    24    24    25   ar
    25    25     1   ar
    26    23     3   ar
    27    22     5   ar
    28    19     8   ar
    29    18    10   ar
    30    16    12   ar
    31     1    26    1
    32     2    27    1
    33     4    28    1
    34     6    29    1
    35     9    30    1
    36    11    31    1
    37    13    32    1
    38    14    33    1
    39    17    34    1
    40    19    35    1
    41    21    36    1
    42    24    37    1
