@<TRIPOS>MOLECULE
*****
 36 41 0 0 0
SMALL
GASTEIGER

@<TRIPOS>ATOM
      1 C          -7.1354    0.2501    0.1779 C.ar    1  UNL1        0.0295
      2 C          -6.1092    1.0224    0.7003 C.ar    1  UNL1       -0.0196
      3 C          -4.8248    0.5916    0.3750 C.ar    1  UNL1        0.0504
      4 N          -3.5962    1.1070    0.7138 N.ar    1  UNL1       -0.3540
      5 C          -2.5848    0.3534    0.1673 C.ar    1  UNL1        0.0511
      6 C          -1.2000    0.5013    0.2457 C.ar    1  UNL1       -0.0087
      7 C          -0.4528   -0.4544   -0.4375 C.ar    1  UNL1        0.1080
      8 C           1.0054   -0.4347   -0.4503 C.ar    1  UNL1        0.1544
      9 C           1.9606   -1.2459   -1.0361 C.ar    1  UNL1       -0.0064
     10 C           3.2270   -0.7143   -0.6867 C.ar    1  UNL1        0.0243
     11 C           4.5654   -1.0403   -0.9395 C.ar    1  UNL1       -0.0080
     12 C           5.5573   -0.2337   -0.3924 C.ar    1  UNL1        0.1356
     13 O           6.8995   -0.4041   -0.5363 O.2     1  UNL1       -0.4629
     14 C           7.4998    0.5998    0.1561 C.ar    1  UNL1        0.0931
     15 C           6.5596    1.4153    0.7447 C.ar    1  UNL1       -0.0160
     16 C           5.2918    0.8825    0.3945 C.ar    1  UNL1        0.0236
     17 C           3.9529    1.2080    0.6469 C.ar    1  UNL1       -0.0080
     18 C           2.9611    0.4008    0.0995 C.ar    1  UNL1        0.1365
     19 O           1.6200    0.5733    0.2448 O.2     1  UNL1       -0.4533
     20 N          -1.0004   -1.4761   -1.1434 N.ar    1  UNL1       -0.2511
     21 C          -2.3498   -1.5988   -1.2048 C.ar    1  UNL1        0.0381
     22 C          -3.1806   -0.6836   -0.5484 C.ar    1  UNL1        0.0270
     23 C          -4.5968   -0.5337   -0.4176 C.ar    1  UNL1        0.0269
     24 C          -5.7047   -1.2453   -0.8959 C.ar    1  UNL1        0.0373
     25 N          -6.9649   -0.8460   -0.5932 N.ar    1  UNL1       -0.2625
     26 H          -8.1729    0.5075    0.3772 H       1  UNL1        0.0830
     27 H          -6.3021    1.8927    1.3136 H       1  UNL1        0.0653
     28 H          -3.4557    1.9276    1.2861 H       1  UNL1        0.1659
     29 H          -0.7359    1.3066    0.8014 H       1  UNL1        0.0661
     30 H           1.7516   -2.1164   -1.6422 H       1  UNL1        0.0662
     31 H           4.8307   -1.8997   -1.5465 H       1  UNL1        0.0661
     32 H           8.5807    0.5974    0.1347 H       1  UNL1        0.1029
     33 H           6.7638    2.2860    1.3511 H       1  UNL1        0.0655
     34 H           3.6876    2.0671    1.2537 H       1  UNL1        0.0661
     35 H          -2.7290   -2.4339   -1.7830 H       1  UNL1        0.0836
     36 H          -5.6188   -2.1295   -1.5170 H       1  UNL1        0.0836
@<TRIPOS>BOND
     1     1     2   ar
     2     2     3   ar
     3     3     4   ar
     4     4     5   ar
     5     5     6   ar
     6     6     7   ar
     7     7     8    1
     8     8     9   ar
     9     9    10   ar
    10    10    11   ar
    11    11    12   ar
    12    12    13   ar
    13    13    14   ar
    14    14    15   ar
    15    15    16   ar
    16    16    17   ar
    17    17    18   ar
    18    18    19   ar
    19     7    20   ar
    20    20    21   ar
    21    21    22   ar
    22    22    23   ar
    23    23    24   ar
    24    24    25   ar
    25    25     1   ar
    26    23     3   ar
    27    22     5   ar
    28    19     8   ar
    29    18    10   ar
    30    16    12   ar
    31     1    26    1
    32     2    27    1
    33     4    28    1
    34     6    29    1
    35     9    30    1
    36    11    31    1
    37    14    32    1
    38    15    33    1
    39    17    34    1
    40    21    35    1
    41    24    36    1
