@<TRIPOS>MOLECULE
*****
 35 40 0 0 0
SMALL
GASTEIGER

@<TRIPOS>ATOM
      1 C          -6.9609   -0.6252   -0.1223 C.ar    1  UNL1        0.0295
      2 C          -6.1485    0.3744    0.3910 C.ar    1  UNL1       -0.0196
      3 C          -4.7810    0.1609    0.2311 C.ar    1  UNL1        0.0504
      4 N          -3.7059    0.9289    0.6108 N.ar    1  UNL1       -0.3540
      5 C          -2.5244    0.3270    0.2471 C.ar    1  UNL1        0.0511
      6 C          -1.2038    0.7397    0.4268 C.ar    1  UNL1       -0.0103
      7 C          -0.2376   -0.1261   -0.0723 C.ar    1  UNL1        0.0892
      8 C           1.1909    0.1542    0.0324 C.ar    1  UNL1        0.0686
      9 C           1.9030    1.2140    0.5816 C.ar    1  UNL1       -0.0072
     10 C           3.2795    0.9549    0.3967 C.ar    1  UNL1        0.1090
     11 N           4.3821    1.6700    0.7469 N.ar    1  UNL1       -0.2387
     12 C           5.5667    1.0974    0.3989 C.ar    1  UNL1        0.1293
     13 C           6.9012    1.5149    0.5809 C.ar    1  UNL1        0.0039
     14 C           7.6846    0.5276    0.0221 C.ar    1  UNL1        0.0966
     15 O           6.9177   -0.4738   -0.4938 O.2     1  UNL1       -0.4439
     16 C           5.6210   -0.1280   -0.2647 C.ar    1  UNL1        0.2478
     17 N           4.5439   -0.8564   -0.6230 N.ar    1  UNL1       -0.1914
     18 C           3.3881   -0.2625   -0.2644 C.ar    1  UNL1        0.1609
     19 N           2.1266   -0.7305   -0.4760 N.ar    1  UNL1       -0.3365
     20 N          -0.5122   -1.2977   -0.6962 N.ar    1  UNL1       -0.2528
     21 C          -1.8050   -1.6762   -0.8584 C.ar    1  UNL1        0.0381
     22 C          -2.8488   -0.8703   -0.3890 C.ar    1  UNL1        0.0270
     23 C          -4.2750   -0.9760   -0.3995 C.ar    1  UNL1        0.0269
     24 C          -5.1826   -1.9270   -0.8836 C.ar    1  UNL1        0.0373
     25 N          -6.5183   -1.7421   -0.7401 N.ar    1  UNL1       -0.2625
     26 H          -8.0427   -0.5478   -0.0452 H       1  UNL1        0.0830
     27 H          -6.5563    1.2506    0.8776 H       1  UNL1        0.0653
     28 H          -3.7756    1.8147    1.0915 H       1  UNL1        0.1659
     29 H          -0.9555    1.6694    0.9208 H       1  UNL1        0.0660
     30 H           1.4871    2.0859    1.0660 H       1  UNL1        0.0661
     31 H           7.2453    2.4198    1.0583 H       1  UNL1        0.0671
     32 H           8.7523    0.3927   -0.0857 H       1  UNL1        0.1031
     33 H           1.8898   -1.5984   -0.9371 H       1  UNL1        0.1674
     34 H          -1.9689   -2.6214   -1.3636 H       1  UNL1        0.0836
     35 H          -4.8767   -2.8378   -1.3855 H       1  UNL1        0.0836
@<TRIPOS>BOND
     1     1     2   ar
     2     2     3   ar
     3     3     4   ar
     4     4     5   ar
     5     5     6   ar
     6     6     7   ar
     7     7     8    1
     8     8     9   ar
     9     9    10   ar
    10    10    11   ar
    11    11    12   ar
    12    12    13   ar
    13    13    14   ar
    14    14    15   ar
    15    15    16   ar
    16    16    17   ar
    17    17    18   ar
    18    18    19   ar
    19     7    20   ar
    20    20    21   ar
    21    21    22   ar
    22    22    23   ar
    23    23    24   ar
    24    24    25   ar
    25    25     1   ar
    26    23     3   ar
    27    22     5   ar
    28    19     8   ar
    29    18    10   ar
    30    16    12   ar
    31     1    26    1
    32     2    27    1
    33     4    28    1
    34     6    29    1
    35     9    30    1
    36    13    31    1
    37    14    32    1
    38    19    33    1
    39    21    34    1
    40    24    35    1
