@<TRIPOS>MOLECULE
*****
 32 36 0 0 0
SMALL
GASTEIGER

@<TRIPOS>ATOM
      1 C          -6.0403   -0.3242   -0.6413 C.ar    1  UNL1        0.0295
      2 C          -5.1133    0.6234   -1.0480 C.ar    1  UNL1       -0.0196
      3 C          -3.7927    0.3376   -0.7082 C.ar    1  UNL1        0.0504
      4 N          -2.6355    1.0405   -0.9462 N.ar    1  UNL1       -0.3540
      5 C          -1.5480    0.3784   -0.4267 C.ar    1  UNL1        0.0510
      6 C          -0.1912    0.7155   -0.4321 C.ar    1  UNL1       -0.0117
      7 C           0.6820   -0.1809    0.1899 C.ar    1  UNL1        0.0730
      8 C           2.1571    0.0292    0.2720 C.ar    1  UNL1        0.0026
      9 C           2.9808   -0.9245    0.9195 C.ar    1  UNL1       -0.0504
     10 C           4.3751   -0.7986    1.0378 C.ar    1  UNL1       -0.0341
     11 C           4.9338    0.3415    0.4731 C.ar    1  UNL1        0.0858
     12 N           6.2105    0.8174    0.3789 N.ar    1  UNL1       -0.2571
     13 N           6.2611    1.9908   -0.2734 N.ar    1  UNL1       -0.0673
     14 N           5.0187    2.3063   -0.6192 N.ar    1  UNL1       -0.1296
     15 C           4.1880    1.3126   -0.1736 C.ar    1  UNL1        0.1131
     16 C           2.7951    1.1632   -0.2786 C.ar    1  UNL1       -0.0232
     17 N           0.2300   -1.3251    0.7715 N.ar    1  UNL1       -0.2542
     18 C          -1.0908   -1.6383    0.7683 C.ar    1  UNL1        0.0380
     19 C          -2.0196   -0.7889    0.1651 C.ar    1  UNL1        0.0270
     20 C          -3.4380   -0.8175   -0.0112 C.ar    1  UNL1        0.0269
     21 C          -4.4525   -1.7119    0.3537 C.ar    1  UNL1        0.0373
     22 N          -5.7456   -1.4563    0.0347 N.ar    1  UNL1       -0.2625
     23 H          -7.0967   -0.1889   -0.8606 H       1  UNL1        0.0830
     24 H          -5.4042    1.5147   -1.5882 H       1  UNL1        0.0653
     25 H          -2.5911    1.9229   -1.4360 H       1  UNL1        0.1659
     26 H           0.1414    1.6308   -0.9012 H       1  UNL1        0.0660
     27 H           2.5220   -1.8134    1.3567 H       1  UNL1        0.0625
     28 H           4.9678   -1.5535    1.5424 H       1  UNL1        0.0639
     29 H           7.0720    0.4124    0.7233 H       1  UNL1        0.1907
     30 H           2.2529    1.9464   -0.7921 H       1  UNL1        0.0646
     31 H          -1.3632   -2.5683    1.2539 H       1  UNL1        0.0836
     32 H          -4.2656   -2.6317    0.8958 H       1  UNL1        0.0836
@<TRIPOS>BOND
     1     1     2   ar
     2     2     3   ar
     3     3     4   ar
     4     4     5   ar
     5     5     6   ar
     6     6     7   ar
     7     7     8    1
     8     8     9   ar
     9     9    10   ar
    10    10    11   ar
    11    11    12   ar
    12    12    13   ar
    13    13    14   ar
    14    14    15   ar
    15    15    16   ar
    16     7    17   ar
    17    17    18   ar
    18    18    19   ar
    19    19    20   ar
    20    20    21   ar
    21    21    22   ar
    22    22     1   ar
    23    20     3   ar
    24    19     5   ar
    25    16     8   ar
    26    15    11   ar
    27     1    23    1
    28     2    24    1
    29     4    25    1
    30     6    26    1
    31     9    27    1
    32    10    28    1
    33    12    29    1
    34    16    30    1
    35    18    31    1
    36    21    32    1
