@<TRIPOS>MOLECULE
*****
 27 30 0 0 0
SMALL
GASTEIGER

@<TRIPOS>ATOM
      1 C           4.9912    0.1708    0.3008 C.ar    1  UNL1        0.0295
      2 C           4.0459    1.1774    0.1747 C.ar    1  UNL1       -0.0196
      3 C           2.7248    0.7391    0.1137 C.ar    1  UNL1        0.0504
      4 N           1.5526    1.4467   -0.0089 N.ar    1  UNL1       -0.3540
      5 C           0.4708    0.5983   -0.0283 C.ar    1  UNL1        0.0510
      6 C          -0.8947    0.8703   -0.1366 C.ar    1  UNL1       -0.0116
      7 C          -1.7351   -0.2407   -0.1234 C.ar    1  UNL1        0.0759
      8 C          -3.1801   -0.1166   -0.2278 C.ar    1  UNL1        0.0376
      9 C          -4.1650   -1.1331   -0.2302 C.ar    1  UNL1        0.0583
     10 N          -5.4076   -0.6538   -0.3433 N.ar    1  UNL1       -0.1817
     11 N          -5.2245    0.6724   -0.4138 N.ar    1  UNL1       -0.2841
     12 C          -3.9120    1.0477   -0.3494 C.ar    1  UNL1        0.0315
     13 N          -1.2855   -1.5154   -0.0137 N.ar    1  UNL1       -0.2541
     14 C           0.0451   -1.7563    0.0903 C.ar    1  UNL1        0.0380
     15 C           0.9623   -0.7005    0.0857 C.ar    1  UNL1        0.0270
     16 C           2.3867   -0.6130    0.1755 C.ar    1  UNL1        0.0269
     17 C           3.4192   -1.5512    0.3032 C.ar    1  UNL1        0.0373
     18 N           4.7130   -1.1496    0.3646 N.ar    1  UNL1       -0.2625
     19 H           6.0495    0.4145    0.3563 H       1  UNL1        0.0830
     20 H           4.3242    2.2219    0.1281 H       1  UNL1        0.0653
     21 H           1.4954    2.4530   -0.0756 H       1  UNL1        0.1659
     22 H          -1.2642    1.8826   -0.2245 H       1  UNL1        0.0660
     23 H          -4.0153   -2.2031   -0.1534 H       1  UNL1        0.0854
     24 H          -6.0435    1.2644   -0.5055 H       1  UNL1        0.1882
     25 H          -3.6372    2.0907   -0.3962 H       1  UNL1        0.0830
     26 H           0.3380   -2.7967    0.1749 H       1  UNL1        0.0836
     27 H           3.2461   -2.6199    0.3584 H       1  UNL1        0.0836
@<TRIPOS>BOND
     1     1     2   ar
     2     2     3   ar
     3     3     4   ar
     4     4     5   ar
     5     5     6   ar
     6     6     7   ar
     7     7     8    1
     8     8     9   ar
     9     9    10   ar
    10    10    11   ar
    11    11    12   ar
    12     7    13   ar
    13    13    14   ar
    14    14    15   ar
    15    15    16   ar
    16    16    17   ar
    17    17    18   ar
    18    18     1   ar
    19    16     3   ar
    20    15     5   ar
    21    12     8   ar
    22     1    19    1
    23     2    20    1
    24     4    21    1
    25     6    22    1
    26     9    23    1
    27    11    24    1
    28    12    25    1
    29    14    26    1
    30    17    27    1
