@<TRIPOS>MOLECULE
*****
 38 43 0 0 0
SMALL
GASTEIGER

@<TRIPOS>ATOM
      1 C          -6.7843   -0.3254   -0.9380 C.ar    1  UNL1        0.0295
      2 C          -6.1552    0.7695   -0.3655 C.ar    1  UNL1       -0.0196
      3 C          -4.7706    0.6606   -0.2547 C.ar    1  UNL1        0.0504
      4 N          -3.8423    1.5381    0.2533 N.ar    1  UNL1       -0.3540
      5 C          -2.5744    1.0131    0.1608 C.ar    1  UNL1        0.0510
      6 C          -1.3410    1.5454    0.5466 C.ar    1  UNL1       -0.0116
      7 C          -0.2144    0.7518    0.3152 C.ar    1  UNL1        0.0764
      8 C           1.1576    1.1794    0.6693 C.ar    1  UNL1        0.0424
      9 C           1.4977    2.3997    1.2656 C.ar    1  UNL1        0.0387
     10 N           2.7435    2.8224    1.6028 N.ar    1  UNL1       -0.2619
     11 C           3.7937    2.0084    1.3532 C.ar    1  UNL1        0.0374
     12 C           3.5949    0.7582    0.7597 C.ar    1  UNL1        0.0276
     13 C           2.2923    0.3773    0.4349 C.ar    1  UNL1        0.0597
     14 N           2.3822   -0.8793   -0.1280 N.ar    1  UNL1       -0.3535
     15 C           3.6805   -1.3156   -0.1766 C.ar    1  UNL1        0.0504
     16 C           4.2214   -2.5057   -0.6569 C.ar    1  UNL1       -0.0196
     17 C           5.5994   -2.6083   -0.5440 C.ar    1  UNL1        0.0295
     18 N           6.4072   -1.6610   -0.0181 N.ar    1  UNL1       -0.2625
     19 C           5.8543   -0.5113    0.4424 C.ar    1  UNL1        0.0373
     20 C           4.4698   -0.3079    0.3747 C.ar    1  UNL1        0.0270
     21 N          -0.3146   -0.4822   -0.2595 N.ar    1  UNL1       -0.2541
     22 C          -1.5231   -0.9823   -0.6278 C.ar    1  UNL1        0.0380
     23 C          -2.6898   -0.2430   -0.4257 C.ar    1  UNL1        0.0270
     24 C          -4.0767   -0.4686   -0.6894 C.ar    1  UNL1        0.0269
     25 C          -4.8080   -1.5214   -1.2545 C.ar    1  UNL1        0.0373
     26 N          -6.1561   -1.4394   -1.3734 N.ar    1  UNL1       -0.2625
     27 H          -7.8640   -0.3336   -1.0669 H       1  UNL1        0.0830
     28 H          -6.7077    1.6385   -0.0331 H       1  UNL1        0.0653
     29 H          -4.0634    2.4444    0.6412 H       1  UNL1        0.1659
     30 H          -1.2872    2.5258    1.0002 H       1  UNL1        0.0660
     31 H           0.7373    3.1351    1.5130 H       1  UNL1        0.0837
     32 H           4.7710    2.3818    1.6369 H       1  UNL1        0.0836
     33 H           1.5661   -1.3843   -0.4531 H       1  UNL1        0.1659
     34 H           3.6187   -3.2946   -1.0868 H       1  UNL1        0.0653
     35 H           6.1135   -3.5010   -0.8917 H       1  UNL1        0.0830
     36 H           6.5411    0.2185    0.8550 H       1  UNL1        0.0836
     37 H          -1.5192   -1.9688   -1.0774 H       1  UNL1        0.0836
     38 H          -4.3505   -2.4344   -1.6180 H       1  UNL1        0.0836
@<TRIPOS>BOND
     1     1     2   ar
     2     2     3   ar
     3     3     4   ar
     4     4     5   ar
     5     5     6   ar
     6     6     7   ar
     7     7     8    1
     8     8     9   ar
     9     9    10   ar
    10    10    11   ar
    11    11    12   ar
    12    12    13   ar
    13    13    14   ar
    14    14    15   ar
    15    15    16   ar
    16    16    17   ar
    17    17    18   ar
    18    18    19   ar
    19    19    20   ar
    20     7    21   ar
    21    21    22   ar
    22    22    23   ar
    23    23    24   ar
    24    24    25   ar
    25    25    26   ar
    26    26     1   ar
    27    24     3   ar
    28    23     5   ar
    29    13     8   ar
    30    20    15   ar
    31    20    12   ar
    32     1    27    1
    33     2    28    1
    34     4    29    1
    35     6    30    1
    36     9    31    1
    37    11    32    1
    38    14    33    1
    39    16    34    1
    40    17    35    1
    41    19    36    1
    42    22    37    1
    43    25    38    1
