@<TRIPOS>MOLECULE
*****
 34 39 0 0 0
SMALL
GASTEIGER

@<TRIPOS>ATOM
      1 C          -6.8651   -0.3022    0.0537 C.ar    1  UNL1        0.0295
      2 C          -5.8571   -1.1369    0.5118 C.ar    1  UNL1       -0.0196
      3 C          -4.5624   -0.6739    0.2866 C.ar    1  UNL1        0.0504
      4 N          -3.3461   -1.2320    0.6013 N.ar    1  UNL1       -0.3540
      5 C          -2.3163   -0.4203    0.1872 C.ar    1  UNL1        0.0512
      6 C          -0.9340   -0.5816    0.2942 C.ar    1  UNL1       -0.0071
      7 C          -0.1586    0.4480   -0.2394 C.ar    1  UNL1        0.1275
      8 C           1.3095    0.4119   -0.1974 C.ar    1  UNL1        0.2471
      9 N           2.1964    1.2881   -0.6480 N.ar    1  UNL1       -0.2075
     10 C           3.4071    0.7339   -0.3354 C.ar    1  UNL1        0.1135
     11 C           4.7145    1.1773   -0.5500 C.ar    1  UNL1        0.0120
     12 C           5.7468    0.3644   -0.1031 C.ar    1  UNL1        0.1573
     13 O           7.0902    0.5791   -0.1959 O.2     1  UNL1       -0.4424
     14 C           7.6304   -0.5244    0.3974 C.ar    1  UNL1        0.1831
     15 N           6.7667   -1.4079    0.8522 N.ar    1  UNL1       -0.2160
     16 C           5.5533   -0.8524    0.5389 C.ar    1  UNL1        0.1129
     17 C           4.2454   -1.2947    0.7530 C.ar    1  UNL1        0.0120
     18 C           3.2137   -0.4807    0.3054 C.ar    1  UNL1        0.1580
     19 O           1.8726   -0.6978    0.3996 O.2     1  UNL1       -0.4339
     20 N          -0.6905    1.5491   -0.8312 N.ar    1  UNL1       -0.2495
     21 C          -2.0362    1.6849   -0.9242 C.ar    1  UNL1        0.0382
     22 C          -2.8880    0.6990   -0.4149 C.ar    1  UNL1        0.0270
     23 C          -4.3078    0.5397   -0.3526 C.ar    1  UNL1        0.0269
     24 C          -5.3988    1.3090   -0.7774 C.ar    1  UNL1        0.0373
     25 N          -6.6683    0.8799   -0.5697 N.ar    1  UNL1       -0.2625
     26 H          -7.9088   -0.5782    0.1838 H       1  UNL1        0.0830
     27 H          -6.0710   -2.0755    1.0059 H       1  UNL1        0.0653
     28 H          -3.2270   -2.1177    1.0726 H       1  UNL1        0.1659
     29 H          -0.4945   -1.4535    0.7631 H       1  UNL1        0.0661
     30 H           4.9106    2.1202   -1.0467 H       1  UNL1        0.0677
     31 H           8.7100   -0.5678    0.4372 H       1  UNL1        0.1255
     32 H           4.0485   -2.2372    1.2495 H       1  UNL1        0.0677
     33 H          -2.3934    2.5872   -1.4080 H       1  UNL1        0.0836
     34 H          -5.2919    2.2629   -1.2813 H       1  UNL1        0.0836
@<TRIPOS>BOND
     1     1     2   ar
     2     2     3   ar
     3     3     4   ar
     4     4     5   ar
     5     5     6   ar
     6     6     7   ar
     7     7     8    1
     8     8     9   ar
     9     9    10   ar
    10    10    11   ar
    11    11    12   ar
    12    12    13   ar
    13    13    14   ar
    14    14    15   ar
    15    15    16   ar
    16    16    17   ar
    17    17    18   ar
    18    18    19   ar
    19     7    20   ar
    20    20    21   ar
    21    21    22   ar
    22    22    23   ar
    23    23    24   ar
    24    24    25   ar
    25    25     1   ar
    26    23     3   ar
    27    22     5   ar
    28    19     8   ar
    29    18    10   ar
    30    16    12   ar
    31     1    26    1
    32     2    27    1
    33     4    28    1
    34     6    29    1
    35    11    30    1
    36    14    31    1
    37    17    32    1
    38    21    33    1
    39    24    34    1
