@<TRIPOS>MOLECULE
*****
 34 39 0 0 0
SMALL
GASTEIGER

@<TRIPOS>ATOM
      1 C          -6.8765   -0.3781   -1.1225 C.ar    1  UNL1        0.0295
      2 C          -5.7563   -0.8160   -1.8124 C.ar    1  UNL1       -0.0196
      3 C          -4.5381   -0.5186   -1.2052 C.ar    1  UNL1        0.0504
      4 N          -3.2509   -0.7954   -1.6007 N.ar    1  UNL1       -0.3540
      5 C          -2.3465   -0.3104   -0.6862 C.ar    1  UNL1        0.0511
      6 C          -0.9528   -0.3599   -0.6753 C.ar    1  UNL1       -0.0097
      7 C          -0.3296    0.2389    0.4192 C.ar    1  UNL1        0.0979
      8 C           1.1455    0.2349    0.5156 C.ar    1  UNL1        0.1277
      9 N           1.9494   -0.3091   -0.3828 N.ar    1  UNL1       -0.2374
     10 C           3.2715   -0.1493   -0.0097 C.ar    1  UNL1        0.0801
     11 C           4.3904   -0.5998   -0.7220 C.ar    1  UNL1       -0.0194
     12 C           5.6763   -0.3720   -0.2322 C.ar    1  UNL1        0.0410
     13 S           7.2018   -0.8123   -0.8980 S.2     1  UNL1       -0.0753
     14 C           7.9832   -0.0818    0.4388 C.ar    1  UNL1        0.0659
     15 N           7.2040    0.4650    1.3438 N.ar    1  UNL1       -0.2474
     16 C           5.8804    0.3052    0.9706 C.ar    1  UNL1        0.0793
     17 C           4.7604    0.7548    1.6812 C.ar    1  UNL1       -0.0194
     18 C           3.4750    0.5263    1.1902 C.ar    1  UNL1        0.0417
     19 S           1.9538    0.9646    1.8528 S.2     1  UNL1       -0.0656
     20 N          -1.0135    0.8406    1.4274 N.ar    1  UNL1       -0.2522
     21 C          -2.3693    0.8769    1.3959 C.ar    1  UNL1        0.0381
     22 C          -3.0738    0.2998    0.3337 C.ar    1  UNL1        0.0270
     23 C          -4.4598    0.1687    0.0065 C.ar    1  UNL1        0.0269
     24 C          -5.6531    0.5675    0.6227 C.ar    1  UNL1        0.0373
     25 N          -6.8512    0.2898    0.0515 N.ar    1  UNL1       -0.2625
     26 H          -7.8724   -0.5635   -1.5176 H       1  UNL1        0.0830
     27 H          -5.8334   -1.3480   -2.7515 H       1  UNL1        0.0653
     28 H          -3.0036   -1.2878   -2.4476 H       1  UNL1        0.1659
     29 H          -0.3839   -0.8337   -1.4671 H       1  UNL1        0.0660
     30 H           4.2416   -1.1280   -1.6594 H       1  UNL1        0.0651
     31 H           9.0619   -0.0744    0.5274 H       1  UNL1        0.0907
     32 H           4.9084    1.2832    2.6190 H       1  UNL1        0.0651
     33 H          -2.8547    1.3715    2.2299 H       1  UNL1        0.0836
     34 H          -5.6843    1.1048    1.5637 H       1  UNL1        0.0836
@<TRIPOS>BOND
     1     1     2   ar
     2     2     3   ar
     3     3     4   ar
     4     4     5   ar
     5     5     6   ar
     6     6     7   ar
     7     7     8    1
     8     8     9   ar
     9     9    10   ar
    10    10    11   ar
    11    11    12   ar
    12    12    13   ar
    13    13    14   ar
    14    14    15   ar
    15    15    16   ar
    16    16    17   ar
    17    17    18   ar
    18    18    19   ar
    19     7    20   ar
    20    20    21   ar
    21    21    22   ar
    22    22    23   ar
    23    23    24   ar
    24    24    25   ar
    25    25     1   ar
    26    23     3   ar
    27    22     5   ar
    28    19     8   ar
    29    18    10   ar
    30    16    12   ar
    31     1    26    1
    32     2    27    1
    33     4    28    1
    34     6    29    1
    35    11    30    1
    36    14    31    1
    37    17    32    1
    38    21    33    1
    39    24    34    1
