@<TRIPOS>MOLECULE
*****
 34 39 0 0 0
SMALL
GASTEIGER

@<TRIPOS>ATOM
      1 C          -6.8767   -0.5153    0.0353 C.ar    1  UNL1        0.0295
      2 C          -5.9856   -0.3515   -1.0143 C.ar    1  UNL1       -0.0196
      3 C          -4.6445   -0.2862   -0.6425 C.ar    1  UNL1        0.0504
      4 N          -3.5120   -0.1309   -1.4062 N.ar    1  UNL1       -0.3540
      5 C          -2.3891   -0.1210   -0.6135 C.ar    1  UNL1        0.0511
      6 C          -1.0441    0.0106   -0.9529 C.ar    1  UNL1       -0.0087
      7 C          -0.1566   -0.0227    0.1164 C.ar    1  UNL1        0.1080
      8 C           1.2828    0.1044   -0.0988 C.ar    1  UNL1        0.1606
      9 N           1.9168    0.2590   -1.2537 N.ar    1  UNL1       -0.2052
     10 C           3.2434    0.3274   -0.9272 C.ar    1  UNL1        0.1998
     11 N           4.2916    0.4839   -1.7722 N.ar    1  UNL1       -0.2020
     12 C           5.5016    0.5173   -1.1624 C.ar    1  UNL1        0.1992
     13 N           6.7304    0.6631   -1.7481 N.ar    1  UNL1       -0.2152
     14 C           7.5850    0.6335   -0.7453 C.ar    1  UNL1        0.0973
     15 N           6.9602    0.4746    0.4645 N.ar    1  UNL1       -0.3279
     16 C           5.6232    0.3979    0.2195 C.ar    1  UNL1        0.1791
     17 N           4.6096    0.2410    1.0955 N.ar    1  UNL1       -0.2052
     18 C           3.4266    0.2133    0.4469 C.ar    1  UNL1        0.1796
     19 N           2.1750    0.0730    0.9537 N.ar    1  UNL1       -0.3202
     20 N          -0.5223   -0.1708    1.4168 N.ar    1  UNL1       -0.2512
     21 C          -1.8402   -0.2968    1.7172 C.ar    1  UNL1        0.0381
     22 C          -2.8103   -0.2751    0.7067 C.ar    1  UNL1        0.0270
     23 C          -4.2368   -0.3796    0.6886 C.ar    1  UNL1        0.0269
     24 C          -5.2188   -0.5443    1.6742 C.ar    1  UNL1        0.0373
     25 N          -6.5305   -0.6106    1.3378 N.ar    1  UNL1       -0.2625
     26 H          -7.9453   -0.5771   -0.1561 H       1  UNL1        0.0830
     27 H          -6.3171   -0.2806   -2.0419 H       1  UNL1        0.0653
     28 H          -3.5048   -0.0369   -2.4124 H       1  UNL1        0.1659
     29 H          -0.7049    0.1309   -1.9754 H       1  UNL1        0.0661
     30 H           8.6604    0.7216   -0.8315 H       1  UNL1        0.1028
     31 H           7.3959    0.4226    1.3728 H       1  UNL1        0.1683
     32 H           1.9145   -0.0365    1.9227 H       1  UNL1        0.1689
     33 H          -2.0858   -0.4127    2.7670 H       1  UNL1        0.0836
     34 H          -4.9915   -0.6256    2.7309 H       1  UNL1        0.0836
@<TRIPOS>BOND
     1     1     2   ar
     2     2     3   ar
     3     3     4   ar
     4     4     5   ar
     5     5     6   ar
     6     6     7   ar
     7     7     8    1
     8     8     9   ar
     9     9    10   ar
    10    10    11   ar
    11    11    12   ar
    12    12    13   ar
    13    13    14   ar
    14    14    15   ar
    15    15    16   ar
    16    16    17   ar
    17    17    18   ar
    18    18    19   ar
    19     7    20   ar
    20    20    21   ar
    21    21    22   ar
    22    22    23   ar
    23    23    24   ar
    24    24    25   ar
    25    25     1   ar
    26    23     3   ar
    27    22     5   ar
    28    19     8   ar
    29    18    10   ar
    30    16    12   ar
    31     1    26    1
    32     2    27    1
    33     4    28    1
    34     6    29    1
    35    14    30    1
    36    15    31    1
    37    19    32    1
    38    21    33    1
    39    24    34    1
