@<TRIPOS>MOLECULE
*****
 40 44 0 0 0
SMALL
GASTEIGER

@<TRIPOS>ATOM
      1 C           3.1825    1.3139    0.2946 C.ar    1  UNL1       -0.0519
      2 C           4.5825    1.4021    0.2949 C.ar    1  UNL1       -0.0342
      3 C           5.2718    0.2338   -0.0217 C.ar    1  UNL1        0.0858
      4 N           6.5984   -0.0759   -0.1253 N.ar    1  UNL1       -0.2571
      5 N           6.7895   -1.3613   -0.4638 N.ar    1  UNL1       -0.0673
      6 N           5.5921   -1.9210   -0.5891 N.ar    1  UNL1       -0.1297
      7 C           4.6461   -0.9662   -0.3250 C.ar    1  UNL1        0.1130
      8 C           3.2459   -1.0347   -0.3200 C.ar    1  UNL1       -0.0247
      9 C           2.4982    0.1188   -0.0064 C.ar    1  UNL1       -0.0157
     10 C           1.0263    0.0740    0.0040 C.ar    1  UNL1       -0.0172
     11 C           0.3080   -0.3708   -1.1131 C.ar    1  UNL1       -0.0491
     12 C          -1.0973   -0.4292   -1.1059 C.ar    1  UNL1       -0.0255
     13 C          -1.8273   -0.0115    0.0224 C.ar    1  UNL1        0.0361
     14 C          -1.1092    0.4482    1.1422 C.ar    1  UNL1       -0.0255
     15 C           0.2971    0.4739    1.1310 C.ar    1  UNL1       -0.0491
     16 C          -1.8387    0.8853    2.3870 C.3     1  UNL1       -0.0245
     17 C          -3.2614    1.3195    2.0651 C.3     1  UNL1       -0.0332
     18 C          -3.9546    0.2374    1.2522 C.3     1  UNL1        0.0125
     19 N          -3.2148   -0.0510    0.0306 N.pl3   1  UNL1       -0.3294
     20 C          -3.9528   -0.4056   -1.1749 C.3     1  UNL1        0.0125
     21 C          -3.1997   -1.4440   -1.9914 C.3     1  UNL1       -0.0332
     22 C          -1.8153   -0.9161   -2.3388 C.3     1  UNL1       -0.0245
     23 H           2.6101    2.2127    0.5255 H       1  UNL1        0.0624
     24 H           5.0891    2.3326    0.5257 H       1  UNL1        0.0639
     25 H           7.4069    0.5164    0.0155 H       1  UNL1        0.1907
     26 H           2.7585   -1.9775   -0.5473 H       1  UNL1        0.0646
     27 H           0.8450   -0.6774   -2.0092 H       1  UNL1        0.0627
     28 H           0.8265    0.8083    2.0214 H       1  UNL1        0.0627
     29 H          -1.3120    1.7215    2.8617 H       1  UNL1        0.0314
     30 H          -1.8504    0.0495    3.0971 H       1  UNL1        0.0314
     31 H          -3.2446    2.2569    1.4939 H       1  UNL1        0.0283
     32 H          -3.8139    1.5124    2.9911 H       1  UNL1        0.0283
     33 H          -4.9702    0.5738    1.0116 H       1  UNL1        0.0464
     34 H          -4.0511   -0.6823    1.8421 H       1  UNL1        0.0464
     35 H          -4.9381   -0.8097   -0.9135 H       1  UNL1        0.0464
     36 H          -4.1241    0.4988   -1.7715 H       1  UNL1        0.0464
     37 H          -3.1102   -2.3738   -1.4145 H       1  UNL1        0.0283
     38 H          -3.7521   -1.6812   -2.9073 H       1  UNL1        0.0283
     39 H          -1.8946   -0.0844   -3.0494 H       1  UNL1        0.0314
     40 H          -1.2419   -1.7163   -2.8213 H       1  UNL1        0.0314
@<TRIPOS>BOND
     1     1     2   ar
     2     2     3   ar
     3     3     4   ar
     4     4     5   ar
     5     5     6   ar
     6     6     7   ar
     7     7     8   ar
     8     8     9   ar
     9     9    10    1
    10    10    11   ar
    11    11    12   ar
    12    12    13   ar
    13    13    14   ar
    14    14    15   ar
    15    14    16    1
    16    16    17    1
    17    17    18    1
    18    18    19    1
    19    19    20    1
    20    20    21    1
    21    21    22    1
    22     9     1   ar
    23    15    10   ar
    24     7     3   ar
    25    22    12    1
    26    19    13    1
    27     1    23    1
    28     2    24    1
    29     4    25    1
    30     8    26    1
    31    11    27    1
    32    15    28    1
    33    16    29    1
    34    16    30    1
    35    17    31    1
    36    17    32    1
    37    18    33    1
    38    18    34    1
    39    20    35    1
    40    20    36    1
    41    21    37    1
    42    21    38    1
    43    22    39    1
    44    22    40    1
