@<TRIPOS>MOLECULE
*****
 46 53 0 0 0
SMALL
GASTEIGER

@<TRIPOS>ATOM
      1 SI          1.1390    1.3666    0.4012 Si      1  UNL1        0.0000
      2 C           2.1818   -0.1903    0.3885 C.2     1  UNL1        0.0000
      3 C           1.4369   -1.3022    0.2482 C.2     1  UNL1        0.0000
      4 C           0.0088   -1.0157    0.1373 C.ar    1  UNL1        0.0000
      5 C          -0.4581    0.3377    0.1868 C.ar    1  UNL1        0.0000
      6 C          -1.8723    0.7348    0.0852 C.ar    1  UNL1        0.0000
      7 C          -2.4560    2.0492    0.1212 C.ar    1  UNL1        0.0000
      8 C          -1.7509    3.2290    0.2630 C.ar    1  UNL1        0.0000
      9 S          -2.7366    4.6464    0.2708 S.2     1  UNL1        0.0000
     10 C          -4.1621    3.7216    0.0807 C.ar    1  UNL1        0.0000
     11 C          -3.8319    2.3961    0.0209 C.ar    1  UNL1        0.0000
     12 C          -4.7978    1.3550   -0.1364 C.ar    1  UNL1        0.0000
     13 C          -6.1897    1.5613   -0.2476 C.ar    1  UNL1        0.0000
     14 C          -6.8324    0.3559   -0.3871 C.ar    1  UNL1        0.0000
     15 S          -5.7447   -0.9571   -0.3782 S.2     1  UNL1        0.0000
     16 C          -4.3334    0.0477   -0.1835 C.ar    1  UNL1        0.0000
     17 C          -2.9358   -0.2749   -0.0797 C.ar    1  UNL1        0.0000
     18 C          -2.4087   -1.5978   -0.1228 C.ar    1  UNL1        0.0000
     19 C          -3.0633   -2.8023   -0.2659 C.ar    1  UNL1        0.0000
     20 N          -2.1304   -3.8179   -0.2512 N.ar    1  UNL1        0.0000
     21 C          -0.8722   -3.2958   -0.1004 C.ar    1  UNL1        0.0000
     22 C          -1.0148   -1.9328   -0.0190 C.ar    1  UNL1        0.0000
     23 C           3.6213   -0.1447    0.5225 C.ar    1  UNL1        0.0000
     24 C           4.3350    0.2737    1.6740 C.ar    1  UNL1        0.0000
     25 C           5.7741    0.2943    1.7719 C.ar    1  UNL1        0.0000
     26 C           6.6516   -0.1017    0.7350 C.ar    1  UNL1        0.0000
     27 C           5.9275   -0.5107   -0.3762 C.ar    1  UNL1        0.0000
     28 C           6.4298   -0.9597   -1.5677 C.ar    1  UNL1        0.0000
     29 O           5.3961   -1.2595   -2.4135 O.2     1  UNL1        0.0000
     30 C           4.2281   -0.9967   -1.7484 C.ar    1  UNL1        0.0000
     31 C           4.5055   -0.5374   -0.4859 C.ar    1  UNL1        0.0000
     32 H           1.3873    2.2439   -0.7715 H       1  UNL1        0.0000
     33 H           1.1717    2.0669    1.7118 H       1  UNL1        0.0000
     34 H           1.8273   -2.3102    0.2218 H       1  UNL1        0.0000
     35 H          -0.6988    3.4144    0.3683 H       1  UNL1        0.0000
     36 H          -5.1245    4.2095    0.0272 H       1  UNL1        0.0000
     37 H          -6.7140    2.5074   -0.2307 H       1  UNL1        0.0000
     38 H          -7.8939    0.1802   -0.4945 H       1  UNL1        0.0000
     39 H          -4.0997   -3.0755   -0.3797 H       1  UNL1        0.0000
     40 H          -2.3469   -4.8024   -0.3394 H       1  UNL1        0.0000
     41 H          -0.0074   -3.9440   -0.0665 H       1  UNL1        0.0000
     42 H           3.7720    0.5914    2.5532 H       1  UNL1        0.0000
     43 H           6.2110    0.6351    2.7120 H       1  UNL1        0.0000
     44 H           7.7283   -0.0818    0.8211 H       1  UNL1        0.0000
     45 H           7.4203   -1.1196   -1.9688 H       1  UNL1        0.0000
     46 H           3.3231   -1.1873   -2.3079 H       1  UNL1        0.0000
@<TRIPOS>BOND
     1     1     2    1
     2     2     3    2
     3     3     4    1
     4     4     5   ar
     5     5     6   ar
     6     6     7   ar
     7     7     8   ar
     8     8     9   ar
     9     9    10   ar
    10    10    11   ar
    11    11    12   ar
    12    12    13   ar
    13    13    14   ar
    14    14    15   ar
    15    15    16   ar
    16    16    17   ar
    17    17    18   ar
    18    18    19   ar
    19    19    20   ar
    20    20    21   ar
    21    21    22   ar
    22     2    23    1
    23    23    24   ar
    24    24    25   ar
    25    25    26   ar
    26    26    27   ar
    27    27    28   ar
    28    28    29   ar
    29    29    30   ar
    30    30    31   ar
    31     5     1    1
    32    17     6   ar
    33    22    18   ar
    34    31    23   ar
    35    22     4   ar
    36    31    27   ar
    37    11     7   ar
    38    16    12   ar
    39     1    32    1
    40     1    33    1
    41     3    34    1
    42     8    35    1
    43    10    36    1
    44    13    37    1
    45    14    38    1
    46    19    39    1
    47    20    40    1
    48    21    41    1
    49    24    42    1
    50    25    43    1
    51    26    44    1
    52    28    45    1
    53    30    46    1
