@<TRIPOS>MOLECULE
*****
 37 42 0 0 0
SMALL
GASTEIGER

@<TRIPOS>ATOM
      1 SI         -3.4869    2.7849   -1.1847 Si      1  UNL1        0.0000
      2 C          -1.7682    2.1496   -0.8574 C.2     1  UNL1        0.0000
      3 C          -1.7977    0.9372   -0.2710 C.ar    1  UNL1        0.0000
      4 C          -0.6793    0.1448    0.1253 C.ar    1  UNL1        0.0000
      5 C           0.6930    0.3131    0.0596 C.ar    1  UNL1        0.0000
      6 SI          2.0545    1.4677   -0.4838 Si      1  UNL1        0.0000
      7 C           3.3272    0.1455    0.1704 C.2     1  UNL1        0.0000
      8 C           2.7072   -0.9428    0.6901 C.2     1  UNL1        0.0000
      9 C           1.3040   -0.7932    0.6018 C.ar    1  UNL1        0.0000
     10 N           0.3393   -1.6628    1.0117 N.ar    1  UNL1        0.0000
     11 C          -0.8943   -1.0995    0.7251 C.ar    1  UNL1        0.0000
     12 C          -2.2149   -1.6817    0.9916 C.ar    1  UNL1        0.0000
     13 C          -2.4065   -2.9215    1.5895 C.ar    1  UNL1        0.0000
     14 N          -3.6196   -3.4678    1.8400 N.ar    1  UNL1        0.0000
     15 C          -4.6955   -2.7396    1.4751 C.ar    1  UNL1        0.0000
     16 C          -4.6231   -1.4929    0.8726 C.ar    1  UNL1        0.0000
     17 C          -3.3638   -0.9420    0.6204 C.ar    1  UNL1        0.0000
     18 C          -3.1686    0.3922   -0.0230 C.ar    1  UNL1        0.0000
     19 C          -4.1625    1.2115   -0.4311 C.2     1  UNL1        0.0000
     20 C           4.7146    0.4106    0.0576 C.ar    1  UNL1        0.0000
     21 N           5.2529    1.5004   -0.4637 N.ar    1  UNL1        0.0000
     22 C           6.6310    1.4487   -0.4233 C.ar    1  UNL1        0.0000
     23 C           7.1631    0.3110    0.1330 C.ar    1  UNL1        0.0000
     24 S           5.9018   -0.7314    0.6234 S.2     1  UNL1        0.0000
     25 H          -3.8193    3.9817   -0.3753 H       1  UNL1        0.0000
     26 H          -3.7933    2.8897   -2.6315 H       1  UNL1        0.0000
     27 H          -0.9034    2.7301   -1.1284 H       1  UNL1        0.0000
     28 H           2.1191    1.6329   -1.9611 H       1  UNL1        0.0000
     29 H           2.0935    2.7291    0.3045 H       1  UNL1        0.0000
     30 H           3.1893   -1.8124    1.1163 H       1  UNL1        0.0000
     31 H           0.4966   -2.5605    1.4479 H       1  UNL1        0.0000
     32 H          -1.5733   -3.5426    1.8997 H       1  UNL1        0.0000
     33 H          -5.6570   -3.1998    1.6868 H       1  UNL1        0.0000
     34 H          -5.5396   -0.9781    0.6129 H       1  UNL1        0.0000
     35 H          -5.2266    1.0584   -0.3692 H       1  UNL1        0.0000
     36 H           7.2039    2.2786   -0.8185 H       1  UNL1        0.0000
     37 H           8.2024    0.0509    0.2704 H       1  UNL1        0.0000
@<TRIPOS>BOND
     1     1     2    1
     2     2     3    2
     3     3     4   ar
     4     4     5   ar
     5     5     6    1
     6     6     7    1
     7     7     8    2
     8     8     9    1
     9     9    10   ar
    10    10    11   ar
    11    11    12   ar
    12    12    13   ar
    13    13    14   ar
    14    14    15   ar
    15    15    16   ar
    16    16    17   ar
    17    17    18   ar
    18    18    19    2
    19     7    20    1
    20    20    21   ar
    21    21    22   ar
    22    22    23   ar
    23    23    24   ar
    24    19     1    1
    25    24    20   ar
    26    18     3   ar
    27    11     4   ar
    28    17    12   ar
    29     9     5   ar
    30     1    25    1
    31     1    26    1
    32     2    27    1
    33     6    28    1
    34     6    29    1
    35     8    30    1
    36    10    31    1
    37    13    32    1
    38    15    33    1
    39    16    34    1
    40    19    35    1
    41    22    36    1
    42    23    37    1
