@<TRIPOS>MOLECULE
*****
 26 29 0 0 0
SMALL
GASTEIGER

@<TRIPOS>ATOM
      1 C           1.5691   -1.0567    0.2781 C.ar    1  UNL1       -0.0519
      2 C           2.9647   -1.0069    0.1429 C.ar    1  UNL1       -0.0342
      3 C           3.4876    0.1602   -0.4090 C.ar    1  UNL1        0.0858
      4 N           4.7565    0.5788   -0.6945 N.ar    1  UNL1       -0.2571
      5 N           4.7699    1.8084   -1.2346 N.ar    1  UNL1       -0.0673
      6 N           3.5108    2.2224   -1.3109 N.ar    1  UNL1       -0.1297
      7 C           2.7064    1.2323   -0.8128 C.ar    1  UNL1        0.1130
      8 C           1.3134    1.1645   -0.6685 C.ar    1  UNL1       -0.0247
      9 C           0.7302    0.0055   -0.1164 C.ar    1  UNL1       -0.0156
     10 C          -0.7324   -0.0917    0.0443 C.ar    1  UNL1       -0.0156
     11 C          -1.5925    0.1344   -1.0497 C.ar    1  UNL1       -0.0519
     12 C          -2.9890    0.0519   -0.9419 C.ar    1  UNL1       -0.0342
     13 C          -3.4904   -0.2700    0.3171 C.ar    1  UNL1        0.0858
     14 N          -4.7529   -0.4394    0.8112 N.ar    1  UNL1       -0.2571
     15 N          -4.7431   -0.7538    2.1168 N.ar    1  UNL1       -0.0673
     16 N          -3.4745   -0.7936    2.5063 N.ar    1  UNL1       -0.1297
     17 C          -2.6879   -0.5019    1.4239 C.ar    1  UNL1        0.1130
     18 C          -1.2944   -0.4134    1.2968 C.ar    1  UNL1       -0.0247
     19 H           1.1274   -1.9618    0.6964 H       1  UNL1        0.0624
     20 H           3.5915   -1.8365    0.4512 H       1  UNL1        0.0639
     21 H           5.6363    0.0981   -0.5548 H       1  UNL1        0.1907
     22 H           0.7081    2.0117   -0.9745 H       1  UNL1        0.0646
     23 H          -1.1678    0.3734   -2.0252 H       1  UNL1        0.0624
     24 H          -3.6324    0.2279   -1.7970 H       1  UNL1        0.0639
     25 H          -5.6429   -0.3603    0.3355 H       1  UNL1        0.1907
     26 H          -0.6718   -0.5834    2.1694 H       1  UNL1        0.0646
@<TRIPOS>BOND
     1     1     2   ar
     2     2     3   ar
     3     3     4   ar
     4     4     5   ar
     5     5     6   ar
     6     6     7   ar
     7     7     8   ar
     8     8     9   ar
     9     9    10    1
    10    10    11   ar
    11    11    12   ar
    12    12    13   ar
    13    13    14   ar
    14    14    15   ar
    15    15    16   ar
    16    16    17   ar
    17    17    18   ar
    18     9     1   ar
    19    18    10   ar
    20     7     3   ar
    21    17    13   ar
    22     1    19    1
    23     2    20    1
    24     4    21    1
    25     8    22    1
    26    11    23    1
    27    12    24    1
    28    14    25    1
    29    18    26    1
