@<TRIPOS>MOLECULE
*****
 21 23 0 0 0
SMALL
GASTEIGER

@<TRIPOS>ATOM
      1 C           0.4698   -1.3117    0.2048 C.ar    1  UNL1       -0.0518
      2 C           1.8727   -1.3231    0.1898 C.ar    1  UNL1       -0.0342
      3 C           2.4959   -0.0995   -0.0458 C.ar    1  UNL1        0.0858
      4 N           3.8032    0.2882   -0.1340 N.ar    1  UNL1       -0.2571
      5 N           3.9211    1.6028   -0.3817 N.ar    1  UNL1       -0.0673
      6 N           2.6943    2.1038   -0.4616 N.ar    1  UNL1       -0.1297
      7 C           1.8036    1.0834   -0.2584 C.ar    1  UNL1        0.1130
      8 C           0.4016    1.0780   -0.2404 C.ar    1  UNL1       -0.0246
      9 C          -0.2720   -0.1345   -0.0041 C.ar    1  UNL1       -0.0128
     10 C          -1.7256   -0.1827    0.0190 C.ar    1  UNL1        0.0194
     11 C          -2.6234   -1.2363   -0.2763 C.ar    1  UNL1        0.0568
     12 N          -3.9031   -0.8875   -0.1195 N.ar    1  UNL1       -0.1817
     13 N          -3.8323    0.3929    0.2762 N.ar    1  UNL1       -0.2841
     14 C          -2.5536    0.8607    0.3775 C.ar    1  UNL1        0.0300
     15 H          -0.0431   -2.2530    0.3991 H       1  UNL1        0.0624
     16 H           2.4317   -2.2375    0.3565 H       1  UNL1        0.0639
     17 H           4.6441   -0.2675   -0.0404 H       1  UNL1        0.1907
     18 H          -0.1292    2.0056   -0.4212 H       1  UNL1        0.0646
     19 H          -2.3979   -2.2430   -0.6038 H       1  UNL1        0.0854
     20 H          -4.6984    0.8873    0.4642 H       1  UNL1        0.1882
     21 H          -2.3593    1.8735    0.7002 H       1  UNL1        0.0830
@<TRIPOS>BOND
     1     1     2   ar
     2     2     3   ar
     3     3     4   ar
     4     4     5   ar
     5     5     6   ar
     6     6     7   ar
     7     7     8   ar
     8     8     9   ar
     9     9    10    1
    10    10    11   ar
    11    11    12   ar
    12    12    13   ar
    13    13    14   ar
    14     9     1   ar
    15    14    10   ar
    16     7     3   ar
    17     1    15    1
    18     2    16    1
    19     4    17    1
    20     8    18    1
    21    11    19    1
    22    13    20    1
    23    14    21    1
