@<TRIPOS>MOLECULE
*****
 20 22 0 0 0
SMALL
GASTEIGER

@<TRIPOS>ATOM
      1 C           0.0797    1.3112   -0.0880 C.ar    1  UNL1       -0.0518
      2 C           1.4705    1.4930   -0.0453 C.ar    1  UNL1       -0.0342
      3 C           2.2404    0.3367    0.0595 C.ar    1  UNL1        0.0858
      4 N           3.5857    0.1052    0.1263 N.ar    1  UNL1       -0.2571
      5 N           3.8644   -1.2049    0.2215 N.ar    1  UNL1       -0.0673
      6 N           2.7092   -1.8588    0.2189 N.ar    1  UNL1       -0.1297
      7 C           1.7001   -0.9391    0.1197 C.ar    1  UNL1        0.1130
      8 C           0.3081   -1.1048    0.0754 C.ar    1  UNL1       -0.0246
      9 C          -0.5106    0.0349   -0.0269 C.ar    1  UNL1       -0.0111
     10 C          -1.9535   -0.1237   -0.0787 C.ar    1  UNL1        0.0408
     11 C          -2.7589   -1.1903   -0.5406 C.ar    1  UNL1        0.0777
     12 N          -4.0635   -0.9429   -0.3996 N.ar    1  UNL1       -0.0862
     13 O          -4.1337    0.3140    0.1773 O.2     1  UNL1       -0.3623
     14 C          -2.8781    0.7919    0.3673 C.ar    1  UNL1        0.1319
     15 H          -0.5419    2.2003   -0.1863 H       1  UNL1        0.0624
     16 H           1.9126    2.4823   -0.0965 H       1  UNL1        0.0639
     17 H           4.3520    0.7667    0.1133 H       1  UNL1        0.1907
     18 H          -0.1006   -2.1077    0.1338 H       1  UNL1        0.0646
     19 H          -2.4569   -2.1316   -0.9780 H       1  UNL1        0.0870
     20 H          -2.8249    1.7676    0.8267 H       1  UNL1        0.1064
@<TRIPOS>BOND
     1     1     2   ar
     2     2     3   ar
     3     3     4   ar
     4     4     5   ar
     5     5     6   ar
     6     6     7   ar
     7     7     8   ar
     8     8     9   ar
     9     9    10    1
    10    10    11   ar
    11    11    12   ar
    12    12    13   ar
    13    13    14   ar
    14     9     1   ar
    15    14    10   ar
    16     7     3   ar
    17     1    15    1
    18     2    16    1
    19     4    17    1
    20     8    18    1
    21    11    19    1
    22    14    20    1
