@<TRIPOS>MOLECULE
*****
 36 41 0 0 0
SMALL
GASTEIGER

@<TRIPOS>ATOM
      1 C          -2.9343    3.0884    0.7055 C.ar    1  UNL1        0.0028
      2 C          -3.7529    2.0085    0.4404 C.ar    1  UNL1       -0.0360
      3 C          -2.9242    0.8877    0.1402 C.ar    1  UNL1        0.0094
      4 C          -1.6270    1.3539    0.2406 C.ar    1  UNL1        0.0713
      5 N          -1.6329    2.6723    0.5792 N.ar    1  UNL1       -0.3590
      6 C          -0.4353    0.4148   -0.0183 C.ar    1  UNL1        0.0717
      7 N           0.8990    0.6762    0.0290 N.ar    1  UNL1       -0.3521
      8 C           1.6052   -0.4669   -0.2751 C.ar    1  UNL1        0.0549
      9 C           0.6636   -1.4589   -0.5158 C.ar    1  UNL1       -0.0275
     10 C          -0.6409   -0.9068   -0.3546 C.ar    1  UNL1        0.0100
     11 C          -1.9890   -1.3624   -0.4516 C.ar    1  UNL1       -0.0080
     12 C          -2.2366   -2.7056   -0.7928 C.ar    1  UNL1       -0.0534
     13 C          -3.5457   -3.1817   -0.8956 C.ar    1  UNL1       -0.0611
     14 C          -4.6265   -2.3325   -0.6614 C.ar    1  UNL1       -0.0611
     15 C          -4.4143   -0.9945   -0.3210 C.ar    1  UNL1       -0.0534
     16 C          -3.1072   -0.4835   -0.2092 C.ar    1  UNL1       -0.0080
     17 C           3.0404   -0.5208   -0.3103 C.ar    1  UNL1        0.0463
     18 S           3.8969   -1.9978   -0.7024 S.2     1  UNL1       -0.0908
     19 C           5.4616   -1.2820   -0.5418 C.ar    1  UNL1        0.0192
     20 C           5.2831    0.0071   -0.2081 C.ar    1  UNL1        0.1424
     21 O           6.2697    0.9178    0.0110 O.2     1  UNL1       -0.4624
     22 C           5.5010    2.0254    0.3069 C.ar    1  UNL1        0.0932
     23 C           4.1202    1.7920    0.2675 C.ar    1  UNL1       -0.0150
     24 C           3.9804    0.4311   -0.0799 C.ar    1  UNL1        0.0363
     25 H          -3.1670    4.1108    0.9715 H       1  UNL1        0.0807
     26 H          -4.8343    2.0258    0.4609 H       1  UNL1        0.0639
     27 H          -0.8185    3.2533    0.7163 H       1  UNL1        0.1654
     28 H           1.3074    1.5694    0.2522 H       1  UNL1        0.1660
     29 H           0.8864   -2.4837   -0.7823 H       1  UNL1        0.0645
     30 H          -1.4159   -3.3926   -0.9814 H       1  UNL1        0.0624
     31 H          -3.7222   -4.2213   -1.1599 H       1  UNL1        0.0618
     32 H          -5.6413   -2.7135   -0.7441 H       1  UNL1        0.0618
     33 H          -5.2773   -0.3580   -0.1447 H       1  UNL1        0.0624
     34 H           6.3874   -1.8171   -0.6930 H       1  UNL1        0.0731
     35 H           6.0800    2.9133    0.5263 H       1  UNL1        0.1030
     36 H           3.3612    2.5317    0.4688 H       1  UNL1        0.0655
@<TRIPOS>BOND
     1     1     2   ar
     2     2     3   ar
     3     3     4   ar
     4     4     5   ar
     5     4     6   ar
     6     6     7   ar
     7     7     8   ar
     8     8     9   ar
     9     9    10   ar
    10    10    11   ar
    11    11    12   ar
    12    12    13   ar
    13    13    14   ar
    14    14    15   ar
    15    15    16   ar
    16     8    17    1
    17    17    18   ar
    18    18    19   ar
    19    19    20   ar
    20    20    21   ar
    21    21    22   ar
    22    22    23   ar
    23    23    24   ar
    24     5     1   ar
    25    10     6   ar
    26    16    11   ar
    27    24    17   ar
    28    16     3   ar
    29    24    20   ar
    30     1    25    1
    31     2    26    1
    32     5    27    1
    33     7    28    1
    34     9    29    1
    35    12    30    1
    36    13    31    1
    37    14    32    1
    38    15    33    1
    39    19    34    1
    40    22    35    1
    41    23    36    1
