@<TRIPOS>MOLECULE
*****
 47 54 0 0 0
SMALL
GASTEIGER

@<TRIPOS>ATOM
      1 C          -5.3604    2.0870    0.8801 C.ar    1  UNL1        0.0028
      2 C          -5.4046    0.7216    0.7592 C.ar    1  UNL1       -0.0361
      3 C          -4.0931    0.2653    0.4193 C.ar    1  UNL1        0.0080
      4 C          -3.2839    1.3955    0.2898 C.ar    1  UNL1        0.0555
      5 N          -4.0790    2.4782    0.6138 N.ar    1  UNL1       -0.3601
      6 C          -1.9150    1.3015   -0.0417 C.ar    1  UNL1        0.0154
      7 C          -1.0691    2.3839   -0.3797 C.ar    1  UNL1       -0.0006
      8 C          -1.5096    3.6480   -0.7109 C.ar    1  UNL1       -0.0159
      9 S          -0.2299    4.7202   -1.0941 S.2     1  UNL1       -0.1038
     10 C           0.9352    3.4831   -0.9018 C.ar    1  UNL1       -0.0160
     11 C           0.3659    2.2757   -0.5558 C.ar    1  UNL1       -0.0025
     12 C           1.1204    1.0939   -0.3415 C.ar    1  UNL1       -0.0077
     13 C           2.5813    1.0256   -0.4296 C.ar    1  UNL1       -0.0420
     14 C           3.3793   -0.0992   -0.0971 C.ar    1  UNL1        0.0305
     15 C           4.8376   -0.1354   -0.1973 C.ar    1  UNL1        0.1637
     16 N           5.4619   -1.3132   -0.1160 N.ar    1  UNL1       -0.2160
     17 C           6.7860   -1.2576   -0.2414 C.ar    1  UNL1        0.1200
     18 N           7.5091   -0.1594   -0.4353 N.ar    1  UNL1       -0.2241
     19 C           6.7844    0.9523   -0.5051 C.ar    1  UNL1        0.1200
     20 N           5.4600    1.0326   -0.3998 N.ar    1  UNL1       -0.2160
     21 C           2.5381   -1.0963    0.4017 C.ar    1  UNL1        0.0311
     22 C           2.9158   -2.2757    0.9973 C.ar    1  UNL1        0.1001
     23 O           1.8248   -2.9213    1.4924 O.2     1  UNL1       -0.4698
     24 C           0.7370   -2.1546    1.2060 C.ar    1  UNL1        0.1000
     25 C           1.0975   -1.0565    0.4581 C.ar    1  UNL1        0.0288
     26 C           0.2359   -0.0105    0.0029 C.ar    1  UNL1        0.0018
     27 C          -1.2640    0.0265   -0.0395 C.ar    1  UNL1        0.0008
     28 C          -2.1364   -1.1192   -0.1270 C.ar    1  UNL1       -0.0089
     29 C          -1.7171   -2.3958   -0.5768 C.ar    1  UNL1       -0.0534
     30 C          -2.5655   -3.5088   -0.6217 C.ar    1  UNL1       -0.0611
     31 C          -3.8929   -3.3822   -0.2485 C.ar    1  UNL1       -0.0611
     32 C          -4.3791   -2.1331    0.1197 C.ar    1  UNL1       -0.0534
     33 C          -3.5269   -1.0045    0.1450 C.ar    1  UNL1       -0.0081
     34 H          -6.1221    2.8083    1.1440 H       1  UNL1        0.0807
     35 H          -6.2848    0.1116    0.9127 H       1  UNL1        0.0639
     36 H          -3.7487    3.4258    0.7146 H       1  UNL1        0.1654
     37 H          -2.5115    4.0341   -0.7986 H       1  UNL1        0.0700
     38 H           1.9720    3.7330   -1.0722 H       1  UNL1        0.0700
     39 H           3.1160    1.9164   -0.7614 H       1  UNL1        0.0631
     40 H           7.3251   -2.1970   -0.1797 H       1  UNL1        0.1048
     41 H           7.3221    1.8808   -0.6641 H       1  UNL1        0.1048
     42 H           3.8595   -2.7638    1.1966 H       1  UNL1        0.1036
     43 H          -0.1922   -2.5258    1.6154 H       1  UNL1        0.1036
     44 H          -0.7052   -2.5408   -0.9498 H       1  UNL1        0.0624
     45 H          -2.1821   -4.4674   -0.9620 H       1  UNL1        0.0618
     46 H          -4.5570   -4.2414   -0.2793 H       1  UNL1        0.0618
     47 H          -5.4351   -2.0415    0.3592 H       1  UNL1        0.0624
@<TRIPOS>BOND
     1     1     2   ar
     2     2     3   ar
     3     3     4   ar
     4     4     5   ar
     5     4     6   ar
     6     6     7   ar
     7     7     8   ar
     8     8     9   ar
     9     9    10   ar
    10    10    11   ar
    11    11    12   ar
    12    12    13   ar
    13    13    14   ar
    14    14    15    1
    15    15    16   ar
    16    16    17   ar
    17    17    18   ar
    18    18    19   ar
    19    19    20   ar
    20    14    21   ar
    21    21    22   ar
    22    22    23   ar
    23    23    24   ar
    24    24    25   ar
    25    25    26   ar
    26    26    27   ar
    27    27    28   ar
    28    28    29   ar
    29    29    30   ar
    30    30    31   ar
    31    31    32   ar
    32    32    33   ar
    33     5     1   ar
    34    27     6   ar
    35    33    28   ar
    36    33     3   ar
    37    11     7   ar
    38    26    12   ar
    39    20    15   ar
    40    25    21   ar
    41     1    34    1
    42     2    35    1
    43     5    36    1
    44     8    37    1
    45    10    38    1
    46    13    39    1
    47    17    40    1
    48    19    41    1
    49    22    42    1
    50    24    43    1
    51    29    44    1
    52    30    45    1
    53    31    46    1
    54    32    47    1
