@<TRIPOS>MOLECULE
*****
 38 44 0 0 0
SMALL
GASTEIGER

@<TRIPOS>ATOM
      1 C          -4.4088    3.3767    0.2324 C.ar    1  UNL1        0.0029
      2 C          -4.9874    2.1211    0.2419 C.ar    1  UNL1       -0.0360
      3 C          -3.9436    1.1512    0.1889 C.ar    1  UNL1        0.0110
      4 C          -2.7753    1.8827    0.1497 C.ar    1  UNL1        0.0906
      5 N          -3.0473    3.2143    0.1755 N.ar    1  UNL1       -0.3578
      6 C          -1.4040    1.1916    0.0865 C.ar    1  UNL1        0.1611
      7 O          -0.2037    1.8144    0.0448 O.2     1  UNL1       -0.4521
      8 C           0.6998    0.7945   -0.0031 C.ar    1  UNL1        0.1440
      9 C           2.1054    0.7744   -0.0602 C.ar    1  UNL1       -0.0034
     10 C           2.5591   -0.5363   -0.0932 C.ar    1  UNL1        0.0308
     11 S           1.2455   -1.6824   -0.0527 S.2     1  UNL1       -0.0838
     12 C           0.0769   -0.4092    0.0087 C.ar    1  UNL1        0.0663
     13 C          -1.3287   -0.1872    0.0681 C.ar    1  UNL1        0.0443
     14 C          -2.5425   -0.9301    0.1090 C.ar    1  UNL1       -0.0053
     15 C          -2.5006   -2.3371    0.0917 C.ar    1  UNL1       -0.0533
     16 C          -3.6814   -3.0824    0.1312 C.ar    1  UNL1       -0.0611
     17 C          -4.9197   -2.4442    0.1884 C.ar    1  UNL1       -0.0611
     18 C          -4.9967   -1.0501    0.2070 C.ar    1  UNL1       -0.0534
     19 C          -3.8263   -0.2700    0.1683 C.ar    1  UNL1       -0.0079
     20 C           3.9442   -0.9666   -0.1540 C.ar    1  UNL1        0.0369
     21 S           4.4288   -2.6556   -0.1924 S.2     1  UNL1       -0.0918
     22 C           6.1179   -2.3086   -0.2569 C.ar    1  UNL1        0.0192
     23 C           6.2549   -0.9731   -0.2477 C.ar    1  UNL1        0.1424
     24 O           7.4334   -0.2946   -0.2879 O.2     1  UNL1       -0.4624
     25 C           6.9563    0.9998   -0.2542 C.ar    1  UNL1        0.0932
     26 C           5.5602    1.0936   -0.1966 C.ar    1  UNL1       -0.0150
     27 C           5.0925   -0.2390   -0.1924 C.ar    1  UNL1        0.0354
     28 H          -4.8478    4.3651    0.2612 H       1  UNL1        0.0807
     29 H          -6.0509    1.9265    0.2828 H       1  UNL1        0.0639
     30 H          -2.3555    3.9525    0.1557 H       1  UNL1        0.1654
     31 H           2.7209    1.6606   -0.0753 H       1  UNL1        0.0666
     32 H          -1.5557   -2.8715    0.0475 H       1  UNL1        0.0624
     33 H          -3.6337   -4.1688    0.1172 H       1  UNL1        0.0618
     34 H          -5.8317   -3.0355    0.2188 H       1  UNL1        0.0618
     35 H          -5.9771   -0.5828    0.2519 H       1  UNL1        0.0624
     36 H           6.8888   -3.0641   -0.2966 H       1  UNL1        0.0731
     37 H           7.7325    1.7539   -0.2772 H       1  UNL1        0.1030
     38 H           5.0011    2.0163   -0.1637 H       1  UNL1        0.0655
@<TRIPOS>BOND
     1     1     2   ar
     2     2     3   ar
     3     3     4   ar
     4     4     5   ar
     5     4     6   ar
     6     6     7   ar
     7     7     8   ar
     8     8     9   ar
     9     9    10   ar
    10    10    11   ar
    11    11    12   ar
    12    12    13   ar
    13    13    14   ar
    14    14    15   ar
    15    15    16   ar
    16    16    17   ar
    17    17    18   ar
    18    18    19   ar
    19    10    20    1
    20    20    21   ar
    21    21    22   ar
    22    22    23   ar
    23    23    24   ar
    24    24    25   ar
    25    25    26   ar
    26    26    27   ar
    27     5     1   ar
    28    13     6   ar
    29    19    14   ar
    30    27    20   ar
    31    19     3   ar
    32    27    23   ar
    33    12     8   ar
    34     1    28    1
    35     2    29    1
    36     5    30    1
    37     9    31    1
    38    15    32    1
    39    16    33    1
    40    17    34    1
    41    18    35    1
    42    22    36    1
    43    25    37    1
    44    26    38    1
