@<TRIPOS>MOLECULE
*****
 35 40 0 0 0
SMALL
GASTEIGER

@<TRIPOS>ATOM
      1 C           1.2668   -3.4888    0.3102 C.3     1  UNL1       -0.0148
      2 C           2.3832   -2.5088    0.1545 C.2     1  UNL1       -0.0719
      3 C           1.8814   -1.2687    0.0232 C.ar    1  UNL1       -0.0134
      4 C           0.4223   -1.3208    0.0307 C.ar    1  UNL1       -0.0128
      5 C           0.0635   -2.5977    0.2667 C.2     1  UNL1       -0.0719
      6 C          -0.4071   -0.0803   -0.0254 C.ar    1  UNL1        0.0001
      7 C          -1.8449   -0.1094   -0.2480 C.ar    1  UNL1       -0.0074
      8 C          -2.5634   -1.2111   -0.7803 C.ar    1  UNL1       -0.0534
      9 C          -3.9565   -1.2155   -0.9422 C.ar    1  UNL1       -0.0611
     10 C          -4.7032   -0.1005   -0.5963 C.ar    1  UNL1       -0.0611
     11 C          -4.0513    1.0290   -0.1220 C.ar    1  UNL1       -0.0519
     12 C          -2.6435    1.0336    0.0274 C.ar    1  UNL1        0.0109
     13 C          -1.9676    2.2182    0.4536 C.ar    1  UNL1        0.1082
     14 N          -2.5579    3.3812    0.7899 N.ar    1  UNL1       -0.1901
     15 S          -1.3553    4.4417    1.1770 S.2     1  UNL1        0.1165
     16 N          -0.0339    3.4877    0.9249 N.ar    1  UNL1       -0.1901
     17 C          -0.4618    2.2741    0.5305 C.ar    1  UNL1        0.1088
     18 C           0.3444    1.1341    0.2202 C.ar    1  UNL1        0.0206
     19 C           1.8402    1.1880    0.1284 C.ar    1  UNL1        0.0106
     20 C           2.5895    2.3681    0.0784 C.ar    1  UNL1        0.0359
     21 N           3.9410    2.4492   -0.0527 N.ar    1  UNL1       -0.2626
     22 C           4.6122    1.2920   -0.1572 C.ar    1  UNL1        0.0282
     23 C           3.9968    0.0580   -0.1428 C.ar    1  UNL1       -0.0353
     24 C           2.6040    0.0046   -0.0021 C.ar    1  UNL1       -0.0069
     25 H           1.3338   -4.0100    1.2697 H       1  UNL1        0.0350
     26 H           1.2540   -4.2166   -0.5060 H       1  UNL1        0.0350
     27 H           3.4237   -2.7856    0.2207 H       1  UNL1        0.0581
     28 H          -0.9277   -2.9771    0.4566 H       1  UNL1        0.0581
     29 H          -2.0374   -2.0916   -1.1395 H       1  UNL1        0.0624
     30 H          -4.4495   -2.0931   -1.3539 H       1  UNL1        0.0618
     31 H          -5.7827   -0.0996   -0.7199 H       1  UNL1        0.0618
     32 H          -4.6347    1.9165    0.1174 H       1  UNL1        0.0624
     33 H           2.1330    3.3511    0.1161 H       1  UNL1        0.0836
     34 H           5.6889    1.3840   -0.2622 H       1  UNL1        0.0830
     35 H           4.6001   -0.8357   -0.2457 H       1  UNL1        0.0639
@<TRIPOS>BOND
     1     1     2    1
     2     2     3    2
     3     3     4   ar
     4     4     5    2
     5     4     6   ar
     6     6     7   ar
     7     7     8   ar
     8     8     9   ar
     9     9    10   ar
    10    10    11   ar
    11    11    12   ar
    12    12    13   ar
    13    13    14   ar
    14    14    15   ar
    15    15    16   ar
    16    16    17   ar
    17    17    18   ar
    18    18    19   ar
    19    19    20   ar
    20    20    21   ar
    21    21    22   ar
    22    22    23   ar
    23    23    24   ar
    24     5     1    1
    25    18     6   ar
    26    24    19   ar
    27    24     3   ar
    28    12     7   ar
    29    17    13   ar
    30     1    25    1
    31     1    26    1
    32     2    27    1
    33     5    28    1
    34     8    29    1
    35     9    30    1
    36    10    31    1
    37    11    32    1
    38    20    33    1
    39    22    34    1
    40    23    35    1
