@<TRIPOS>MOLECULE
*****
 37 42 0 0 0
SMALL
GASTEIGER

@<TRIPOS>ATOM
      1 C           1.5207   -3.0807    0.7382 C.3     1  UNL1       -0.0148
      2 C           0.4294   -2.1524    0.2984 C.2     1  UNL1       -0.0719
      3 C           0.8969   -0.8983    0.1971 C.ar    1  UNL1       -0.0124
      4 C           2.3460   -0.9271    0.4427 C.ar    1  UNL1       -0.0133
      5 C           2.7130   -2.1742    0.7845 C.2     1  UNL1       -0.0719
      6 C           3.2028    0.2477    0.1961 C.ar    1  UNL1       -0.0065
      7 C           4.5706    0.2708    0.4743 C.ar    1  UNL1       -0.0353
      8 C           5.2839    1.4166    0.1661 C.ar    1  UNL1        0.0282
      9 N           4.7365    2.5173   -0.3887 N.ar    1  UNL1       -0.2626
     10 C           3.4051    2.4764   -0.6454 C.ar    1  UNL1        0.0364
     11 C           2.5872    1.3823   -0.3807 C.ar    1  UNL1        0.0151
     12 C           1.1261    1.3499   -0.6184 C.ar    1  UNL1        0.0302
     13 S           0.2918    2.5657   -1.4539 S.2     1  UNL1       -0.0875
     14 C          -1.2337    1.8231   -1.1780 C.ar    1  UNL1        0.0211
     15 C          -2.4645    2.2992   -1.6650 C.ar    1  UNL1       -0.0468
     16 C          -3.6384    1.6485   -1.2998 C.ar    1  UNL1       -0.0529
     17 C          -3.6149    0.5924   -0.3953 C.ar    1  UNL1       -0.0172
     18 C          -4.8201    0.0147    0.0361 C.ar    1  UNL1       -0.0540
     19 C          -4.8286   -0.9842    1.0077 C.ar    1  UNL1       -0.0612
     20 C          -3.6329   -1.4002    1.5774 C.ar    1  UNL1       -0.0611
     21 C          -2.4248   -0.8457    1.1471 C.ar    1  UNL1       -0.0534
     22 C          -2.3763    0.1219    0.1183 C.ar    1  UNL1       -0.0091
     23 C          -1.1329    0.6817   -0.3685 C.ar    1  UNL1        0.0052
     24 C           0.2705    0.3165   -0.2466 C.ar    1  UNL1        0.0055
     25 H           1.6688   -3.8830    0.0095 H       1  UNL1        0.0350
     26 H           1.3063   -3.5095    1.7213 H       1  UNL1        0.0350
     27 H          -0.5680   -2.4886    0.0626 H       1  UNL1        0.0581
     28 H           3.7136   -2.5222    0.9882 H       1  UNL1        0.0581
     29 H           5.0820   -0.5751    0.9171 H       1  UNL1        0.0639
     30 H           6.3506    1.4804    0.3627 H       1  UNL1        0.0830
     31 H           3.0169    3.3943   -1.0769 H       1  UNL1        0.0836
     32 H          -2.5024    3.1687   -2.3161 H       1  UNL1        0.0629
     33 H          -4.5824    2.0216   -1.6920 H       1  UNL1        0.0624
     34 H          -5.7711    0.3559   -0.3682 H       1  UNL1        0.0624
     35 H          -5.7703   -1.4129    1.3398 H       1  UNL1        0.0618
     36 H          -3.6360   -2.1460    2.3681 H       1  UNL1        0.0618
     37 H          -1.5215   -1.1455    1.6681 H       1  UNL1        0.0624
@<TRIPOS>BOND
     1     1     2    1
     2     2     3    2
     3     3     4   ar
     4     4     5    2
     5     4     6   ar
     6     6     7   ar
     7     7     8   ar
     8     8     9   ar
     9     9    10   ar
    10    10    11   ar
    11    11    12   ar
    12    12    13   ar
    13    13    14   ar
    14    14    15   ar
    15    15    16   ar
    16    16    17   ar
    17    17    18   ar
    18    18    19   ar
    19    19    20   ar
    20    20    21   ar
    21    21    22   ar
    22    22    23   ar
    23    23    24   ar
    24     5     1    1
    25    11     6   ar
    26    24    12   ar
    27    24     3   ar
    28    23    14   ar
    29    22    17   ar
    30     1    25    1
    31     1    26    1
    32     2    27    1
    33     5    28    1
    34     7    29    1
    35     8    30    1
    36    10    31    1
    37    15    32    1
    38    16    33    1
    39    18    34    1
    40    19    35    1
    41    20    36    1
    42    21    37    1
