@<TRIPOS>MOLECULE
*****
 38 44 0 0 0
SMALL
GASTEIGER

@<TRIPOS>ATOM
      1 C           6.3091    0.8998   -1.4545 C.ar    1  UNL1       -0.0231
      2 C           5.8072    1.3559   -0.2547 C.ar    1  UNL1       -0.0449
      3 C           4.4496    0.9979   -0.1373 C.ar    1  UNL1        0.0174
      4 C           3.9043    0.2932   -1.1908 C.ar    1  UNL1        0.0221
      5 C           2.5583   -0.1362   -1.2200 C.ar    1  UNL1       -0.0375
      6 C           1.6751    0.1314   -0.1471 C.ar    1  UNL1        0.0121
      7 C           0.2851   -0.2937   -0.1489 C.ar    1  UNL1       -0.0044
      8 C          -0.8269    0.5776   -0.0223 C.ar    1  UNL1       -0.0449
      9 C          -2.2151    0.1375   -0.0450 C.ar    1  UNL1       -0.0059
     10 C          -3.3589    0.9573    0.0750 C.ar    1  UNL1        0.0276
     11 C          -3.4120    2.3183    0.2400 C.ar    1  UNL1        0.1000
     12 O          -4.7158    2.7281    0.3127 O.2     1  UNL1       -0.4698
     13 C          -5.5050    1.6171    0.1956 C.ar    1  UNL1        0.0994
     14 C          -4.7147    0.5086    0.0484 C.ar    1  UNL1        0.0205
     15 C          -5.1525   -0.8003   -0.0976 C.ar    1  UNL1       -0.0504
     16 C          -4.0530   -1.6763   -0.2210 C.ar    1  UNL1       -0.0527
     17 C          -2.6606   -1.2386   -0.1971 C.ar    1  UNL1       -0.0064
     18 C          -1.5166   -2.0590   -0.3101 C.ar    1  UNL1        0.0281
     19 C          -1.4805   -3.4229   -0.4540 C.ar    1  UNL1        0.1000
     20 O          -0.1845   -3.8504   -0.5098 O.2     1  UNL1       -0.4698
     21 C           0.6170   -2.7499   -0.3987 C.ar    1  UNL1        0.1000
     22 C          -0.1521   -1.6177   -0.2877 C.ar    1  UNL1        0.0282
     23 C           2.2266    0.8654    0.9404 C.ar    1  UNL1        0.1082
     24 N           1.5909    1.2500    2.0690 N.ar    1  UNL1       -0.1901
     25 S           2.7014    2.0699    3.0121 S.2     1  UNL1        0.1165
     26 N           4.0555    1.9895    2.0310 N.ar    1  UNL1       -0.1901
     27 C           3.6103    1.3135    0.9818 C.ar    1  UNL1        0.1087
     28 S           5.1315    0.0648   -2.3866 S.2     1  UNL1       -0.0966
     29 H           7.3142    1.0145   -1.8375 H       1  UNL1        0.0694
     30 H           6.3891    1.9067    0.4747 H       1  UNL1        0.0630
     31 H           2.1944   -0.6763   -2.0938 H       1  UNL1        0.0636
     32 H          -0.6321    1.6437    0.0996 H       1  UNL1        0.0630
     33 H          -2.6776    3.1067    0.3229 H       1  UNL1        0.1036
     34 H          -6.5699    1.7964    0.2380 H       1  UNL1        0.1035
     35 H          -6.1825   -1.1270   -0.1150 H       1  UNL1        0.0625
     36 H          -4.2630   -2.7390   -0.3396 H       1  UNL1        0.0624
     37 H          -2.2248   -4.2032   -0.5234 H       1  UNL1        0.1036
     38 H           1.6786   -2.9534   -0.4137 H       1  UNL1        0.1036
@<TRIPOS>BOND
     1     1     2   ar
     2     2     3   ar
     3     3     4   ar
     4     4     5   ar
     5     5     6   ar
     6     6     7    1
     7     7     8   ar
     8     8     9   ar
     9     9    10   ar
    10    10    11   ar
    11    11    12   ar
    12    12    13   ar
    13    13    14   ar
    14    14    15   ar
    15    15    16   ar
    16    16    17   ar
    17    17    18   ar
    18    18    19   ar
    19    19    20   ar
    20    20    21   ar
    21    21    22   ar
    22     6    23   ar
    23    23    24   ar
    24    24    25   ar
    25    25    26   ar
    26    26    27   ar
    27     4    28   ar
    28    28     1   ar
    29    27     3   ar
    30    22     7   ar
    31    27    23   ar
    32    17     9   ar
    33    22    18   ar
    34    14    10   ar
    35     1    29    1
    36     2    30    1
    37     5    31    1
    38     8    32    1
    39    11    33    1
    40    13    34    1
    41    15    35    1
    42    16    36    1
    43    19    37    1
    44    21    38    1
