@<TRIPOS>MOLECULE
*****
 38 44 0 0 0
SMALL
GASTEIGER

@<TRIPOS>ATOM
      1 C           5.6148   -0.3227   -1.8500 C.ar    1  UNL1        0.0028
      2 C           5.5743   -0.5504   -0.4890 C.ar    1  UNL1       -0.0345
      3 C           4.2249   -0.4431   -0.1485 C.ar    1  UNL1        0.0278
      4 C           3.4391   -0.1596   -1.2456 C.ar    1  UNL1        0.0492
      5 C           2.0444    0.0022   -1.1911 C.ar    1  UNL1       -0.0279
      6 C           1.3657   -0.1180    0.0479 C.ar    1  UNL1        0.0129
      7 C          -0.0739    0.0374    0.1464 C.ar    1  UNL1       -0.0059
      8 C          -1.0121   -0.8515   -0.4364 C.ar    1  UNL1       -0.0435
      9 C          -2.4540   -0.6922   -0.3574 C.ar    1  UNL1        0.0115
     10 C          -3.3532   -1.6315   -0.9655 C.ar    1  UNL1        0.1076
     11 N          -3.0097   -2.7311   -1.6630 N.ar    1  UNL1       -0.1902
     12 S          -4.4202   -3.4622   -2.1366 S.2     1  UNL1        0.1165
     13 N          -5.5426   -2.4229   -1.4964 N.ar    1  UNL1       -0.1908
     14 C          -4.8543   -1.4540   -0.8727 C.ar    1  UNL1        0.1005
     15 C          -5.4328   -0.3591   -0.1873 C.ar    1  UNL1       -0.0329
     16 C          -4.5417    0.5509    0.3984 C.ar    1  UNL1       -0.0512
     17 C          -3.1210    0.3959    0.3195 C.ar    1  UNL1       -0.0065
     18 C          -2.1522    1.2650    0.8760 C.ar    1  UNL1        0.0078
     19 C          -2.3875    2.4190    1.5856 C.ar    1  UNL1        0.0100
     20 N          -1.1621    2.9485    1.9282 N.ar    1  UNL1       -0.3659
     21 C          -0.1480    2.1570    1.4380 C.ar    1  UNL1        0.0100
     22 C          -0.7308    1.0930    0.7913 C.ar    1  UNL1        0.0078
     23 C           2.1645   -0.4224    1.1916 C.ar    1  UNL1        0.1083
     24 N           1.7431   -0.6061    2.4630 N.ar    1  UNL1       -0.1901
     25 S           3.0944   -0.9398    3.3903 S.2     1  UNL1        0.1165
     26 N           4.2980   -0.8686    2.2271 N.ar    1  UNL1       -0.1901
     27 C           3.6104   -0.5902    1.1300 C.ar    1  UNL1        0.1096
     28 N           4.3303   -0.0899   -2.2975 N.ar    1  UNL1       -0.3606
     29 H           6.4452   -0.3069   -2.5436 H       1  UNL1        0.0807
     30 H           6.4158   -0.7653    0.1568 H       1  UNL1        0.0639
     31 H           1.4823    0.2288   -2.0949 H       1  UNL1        0.0645
     32 H          -0.6276   -1.7219   -0.9727 H       1  UNL1        0.0631
     33 H          -6.5073   -0.2370   -0.1232 H       1  UNL1        0.0640
     34 H          -4.9557    1.4044    0.9328 H       1  UNL1        0.0624
     35 H          -3.2970    2.9203    1.8859 H       1  UNL1        0.0813
     36 H          -1.0254    3.7969    2.4624 H       1  UNL1        0.1648
     37 H           0.8857    2.4239    1.6121 H       1  UNL1        0.0813
     38 H           4.0766    0.1031   -3.2572 H       1  UNL1        0.1653
@<TRIPOS>BOND
     1     1     2   ar
     2     2     3   ar
     3     3     4   ar
     4     4     5   ar
     5     5     6   ar
     6     6     7    1
     7     7     8   ar
     8     8     9   ar
     9     9    10   ar
    10    10    11   ar
    11    11    12   ar
    12    12    13   ar
    13    13    14   ar
    14    14    15   ar
    15    15    16   ar
    16    16    17   ar
    17    17    18   ar
    18    18    19   ar
    19    19    20   ar
    20    20    21   ar
    21    21    22   ar
    22     6    23   ar
    23    23    24   ar
    24    24    25   ar
    25    25    26   ar
    26    26    27   ar
    27     4    28   ar
    28    28     1   ar
    29    27     3   ar
    30    22     7   ar
    31    27    23   ar
    32    17     9   ar
    33    22    18   ar
    34    14    10   ar
    35     1    29    1
    36     2    30    1
    37     5    31    1
    38     8    32    1
    39    15    33    1
    40    16    34    1
    41    19    35    1
    42    20    36    1
    43    21    37    1
    44    28    38    1
