@<TRIPOS>MOLECULE
*****
 47 54 0 0 0
SMALL
GASTEIGER

@<TRIPOS>ATOM
      1 SI         -3.5931   -3.9595   -0.9558 Si      1  UNL1        0.0000
      2 C          -2.0132   -2.9768   -0.8471 C.2     1  UNL1        0.0000
      3 C          -2.2542   -1.7034   -0.4807 C.ar    1  UNL1        0.0000
      4 C          -1.2921   -0.6687   -0.2968 C.ar    1  UNL1        0.0000
      5 C           0.0801   -0.5430   -0.3986 C.ar    1  UNL1        0.0000
      6 SI          1.6303   -1.4726   -0.8031 Si      1  UNL1        0.0000
      7 C           2.6202    0.1515   -0.4469 C.2     1  UNL1        0.0000
      8 C           1.8013    1.1730   -0.1055 C.2     1  UNL1        0.0000
      9 C           0.4398    0.7608   -0.0813 C.ar    1  UNL1        0.0000
     10 O          -0.6942    1.4669    0.2198 O.2     1  UNL1        0.0000
     11 C          -1.7271    0.5886    0.0851 C.ar    1  UNL1        0.0000
     12 C          -3.0927    0.9781    0.3246 C.ar    1  UNL1        0.0000
     13 C          -3.5709    2.2272    0.7084 C.ar    1  UNL1        0.0000
     14 C          -2.8898    3.3905    0.9553 C.ar    1  UNL1        0.0000
     15 O          -3.7721    4.3775    1.3078 O.2     1  UNL1        0.0000
     16 C          -5.0290    3.8360    1.2854 C.ar    1  UNL1        0.0000
     17 C          -4.9497    2.5188    0.9225 C.ar    1  UNL1        0.0000
     18 C          -6.0030    1.6242    0.7849 C.ar    1  UNL1        0.0000
     19 C          -5.5316    0.3426    0.3932 C.ar    1  UNL1        0.0000
     20 C          -4.1429    0.0078    0.1664 C.ar    1  UNL1        0.0000
     21 C          -3.7049   -1.3736   -0.2489 C.ar    1  UNL1        0.0000
     22 C          -4.5323   -2.4225   -0.4496 C.2     1  UNL1        0.0000
     23 C           4.0555    0.2020   -0.6198 C.ar    1  UNL1        0.0000
     24 C           4.6887    0.7722   -1.7495 C.ar    1  UNL1        0.0000
     25 C           6.1090    0.8205   -1.9280 C.ar    1  UNL1        0.0000
     26 C           7.0394    0.3130   -0.9955 C.ar    1  UNL1        0.0000
     27 C           6.4106   -0.2320    0.1244 C.ar    1  UNL1        0.0000
     28 C           7.1141   -0.7722    1.1722 C.ar    1  UNL1        0.0000
     29 S           6.0582   -1.3385    2.4040 S.2     1  UNL1        0.0000
     30 C           4.6569   -0.8536    1.5313 C.ar    1  UNL1        0.0000
     31 C           4.9802   -0.2893    0.3185 C.ar    1  UNL1        0.0000
     32 H          -3.9051   -4.3789   -2.3428 H       1  UNL1        0.0000
     33 H          -3.6676   -5.0281    0.0687 H       1  UNL1        0.0000
     34 H          -1.0627   -3.4337   -1.0634 H       1  UNL1        0.0000
     35 H           1.7483   -1.8736   -2.2288 H       1  UNL1        0.0000
     36 H           1.9726   -2.5345    0.1782 H       1  UNL1        0.0000
     37 H           2.1089    2.1848    0.1207 H       1  UNL1        0.0000
     38 H          -1.8501    3.6853    0.9329 H       1  UNL1        0.0000
     39 H          -5.8310    4.5115    1.5464 H       1  UNL1        0.0000
     40 H          -7.0478    1.8481    0.9481 H       1  UNL1        0.0000
     41 H          -6.2882   -0.4294    0.2596 H       1  UNL1        0.0000
     42 H          -5.6042   -2.4602   -0.3539 H       1  UNL1        0.0000
     43 H           4.0672    1.1995   -2.5379 H       1  UNL1        0.0000
     44 H           6.4919    1.2800   -2.8402 H       1  UNL1        0.0000
     45 H           8.1092    0.3626   -1.1499 H       1  UNL1        0.0000
     46 H           8.1843   -0.8654    1.2956 H       1  UNL1        0.0000
     47 H           3.6829   -1.0132    1.9724 H       1  UNL1        0.0000
@<TRIPOS>BOND
     1     1     2    1
     2     2     3    2
     3     3     4   ar
     4     4     5   ar
     5     5     6    1
     6     6     7    1
     7     7     8    2
     8     8     9    1
     9     9    10   ar
    10    10    11   ar
    11    11    12   ar
    12    12    13   ar
    13    13    14   ar
    14    14    15   ar
    15    15    16   ar
    16    16    17   ar
    17    17    18   ar
    18    18    19   ar
    19    19    20   ar
    20    20    21   ar
    21    21    22    2
    22     7    23    1
    23    23    24   ar
    24    24    25   ar
    25    25    26   ar
    26    26    27   ar
    27    27    28   ar
    28    28    29   ar
    29    29    30   ar
    30    30    31   ar
    31    22     1    1
    32    31    23   ar
    33    21     3   ar
    34    31    27   ar
    35    11     4   ar
    36    20    12   ar
    37     9     5   ar
    38    17    13   ar
    39     1    32    1
    40     1    33    1
    41     2    34    1
    42     6    35    1
    43     6    36    1
    44     8    37    1
    45    14    38    1
    46    16    39    1
    47    18    40    1
    48    19    41    1
    49    22    42    1
    50    24    43    1
    51    25    44    1
    52    26    45    1
    53    28    46    1
    54    30    47    1
