@<TRIPOS>MOLECULE
*****
 30 34 0 0 0
SMALL
GASTEIGER

@<TRIPOS>ATOM
      1 C           5.6966    0.8983    0.4750 C.ar    1  UNL1       -0.0231
      2 C           5.2175   -0.2986   -0.0125 C.ar    1  UNL1       -0.0449
      3 C           3.8086   -0.2781   -0.0290 C.ar    1  UNL1        0.0174
      4 C           3.2046    0.8735    0.4215 C.ar    1  UNL1        0.0221
      5 C           1.8025    1.0368    0.4623 C.ar    1  UNL1       -0.0361
      6 C           0.8898    0.0246    0.0410 C.ar    1  UNL1        0.0296
      7 C          -0.5753    0.2400    0.1016 C.ar    1  UNL1        0.0738
      8 C          -1.5525   -0.6766   -0.2824 C.ar    1  UNL1       -0.0265
      9 C          -2.9168   -0.3458   -0.1739 C.ar    1  UNL1        0.0037
     10 C          -3.9497   -1.2127   -0.5390 C.ar    1  UNL1        0.0354
     11 N          -5.2682   -0.9182   -0.4442 N.ar    1  UNL1       -0.2626
     12 C          -5.5848    0.3009    0.0383 C.ar    1  UNL1        0.0282
     13 C          -4.6463    1.2399    0.4306 C.ar    1  UNL1       -0.0344
     14 C          -3.2881    0.9079    0.3215 C.ar    1  UNL1        0.0031
     15 C          -2.2560    1.7653    0.6828 C.ar    1  UNL1        0.0360
     16 N          -0.9398    1.4599    0.5835 N.ar    1  UNL1       -0.2543
     17 C           1.5220   -1.1677   -0.4252 C.ar    1  UNL1        0.1097
     18 N           0.9326   -2.2938   -0.8864 N.ar    1  UNL1       -0.1901
     19 S           2.1303   -3.3787   -1.2998 S.2     1  UNL1        0.1165
     20 N           3.4876   -2.4869   -0.9190 N.ar    1  UNL1       -0.1901
     21 C           2.9723   -1.3499   -0.4728 C.ar    1  UNL1        0.1087
     22 S           4.4366    1.9906    0.8903 S.2     1  UNL1       -0.0966
     23 H           6.7286    1.1923    0.6108 H       1  UNL1        0.0694
     24 H           5.8496   -1.1192   -0.3300 H       1  UNL1        0.0630
     25 H           1.4071    1.9832    0.8343 H       1  UNL1        0.0636
     26 H          -1.2952   -1.6546   -0.6694 H       1  UNL1        0.0645
     27 H          -3.7395   -2.2045   -0.9324 H       1  UNL1        0.0836
     28 H          -6.6489    0.5106    0.1036 H       1  UNL1        0.0830
     29 H          -4.9680    2.2034    0.8107 H       1  UNL1        0.0639
     30 H          -2.4572    2.7582    1.0768 H       1  UNL1        0.0836
@<TRIPOS>BOND
     1     1     2   ar
     2     2     3   ar
     3     3     4   ar
     4     4     5   ar
     5     5     6   ar
     6     6     7    1
     7     7     8   ar
     8     8     9   ar
     9     9    10   ar
    10    10    11   ar
    11    11    12   ar
    12    12    13   ar
    13    13    14   ar
    14    14    15   ar
    15    15    16   ar
    16     6    17   ar
    17    17    18   ar
    18    18    19   ar
    19    19    20   ar
    20    20    21   ar
    21     4    22   ar
    22    22     1   ar
    23    21     3   ar
    24    16     7   ar
    25    21    17   ar
    26    14     9   ar
    27     1    23    1
    28     2    24    1
    29     5    25    1
    30     8    26    1
    31    10    27    1
    32    12    28    1
    33    13    29    1
    34    15    30    1
