@<TRIPOS>MOLECULE
*****
 49 55 0 0 0
SMALL
GASTEIGER

@<TRIPOS>ATOM
      1 C          -1.1809    3.3173    0.8525 C.3     1  UNL1       -0.0148
      2 C          -2.4093    2.5385    0.4790 C.2     1  UNL1       -0.0719
      3 C          -2.0572    1.3102    0.0665 C.ar    1  UNL1       -0.0130
      4 C          -2.8786    0.1929   -0.3859 C.ar    1  UNL1       -0.0036
      5 C          -2.2174   -0.9469   -0.7071 C.ar    1  UNL1       -0.0524
      6 C          -0.7578   -1.0777   -0.6286 C.ar    1  UNL1       -0.0528
      7 C           0.0488   -0.0650   -0.2321 C.ar    1  UNL1       -0.0098
      8 C           1.4873   -0.3001   -0.1860 C.ar    1  UNL1       -0.0066
      9 C           2.1603   -1.0730    0.7933 C.ar    1  UNL1       -0.0527
     10 C           3.5860   -1.2724    0.8210 C.ar    1  UNL1       -0.0523
     11 C           4.4791   -0.7248   -0.1327 C.ar    1  UNL1       -0.0006
     12 C           5.9151   -0.9041   -0.1042 C.ar    1  UNL1        0.0200
     13 C           6.8297   -0.3819    0.7887 C.ar    1  UNL1       -0.0469
     14 C           8.1636   -0.7976    0.5044 C.ar    1  UNL1       -0.0541
     15 C           8.2198   -1.6339   -0.5880 C.ar    1  UNL1       -0.0237
     16 S           6.6732   -1.9130   -1.2631 S.2     1  UNL1       -0.0966
     17 C           3.8015    0.0410   -1.0850 C.ar    1  UNL1        0.0286
     18 C           4.3116    0.7488   -2.1428 C.ar    1  UNL1        0.1000
     19 O           3.2946    1.3616   -2.8227 O.2     1  UNL1       -0.4698
     20 C           2.1241    1.0451   -2.1894 C.ar    1  UNL1        0.1000
     21 C           2.3858    0.2423   -1.1088 C.ar    1  UNL1        0.0282
     22 C          -0.6020    1.1807    0.1425 C.ar    1  UNL1       -0.0135
     23 C          -0.0783    2.3307    0.5949 C.2     1  UNL1       -0.0719
     24 C          -4.3014    0.1890   -0.5035 C.ar    1  UNL1        0.0239
     25 S          -5.1032    1.2038   -1.6714 S.2     1  UNL1       -0.0958
     26 C          -6.6788    0.6562   -1.2231 C.ar    1  UNL1       -0.0163
     27 C          -6.5694   -0.2626   -0.2268 C.ar    1  UNL1       -0.0142
     28 C          -7.4670   -1.0463    0.5385 C.2     1  UNL1       -0.0574
     29 C          -6.7622   -1.8018    1.4123 C.2     1  UNL1       -0.0791
     30 C          -5.2560   -1.5511    1.2779 C.3     1  UNL1       -0.0075
     31 C          -5.2452   -0.5372    0.1835 C.ar    1  UNL1       -0.0217
     32 H          -1.0703    4.2056    0.2234 H       1  UNL1        0.0350
     33 H          -1.2071    3.6112    1.9062 H       1  UNL1        0.0350
     34 H          -3.4150    2.9249    0.5429 H       1  UNL1        0.0581
     35 H          -2.7519   -1.8263   -1.0591 H       1  UNL1        0.0624
     36 H          -0.3493   -2.0418   -0.9230 H       1  UNL1        0.0624
     37 H           1.5691   -1.5411    1.5822 H       1  UNL1        0.0624
     38 H           3.9940   -1.8876    1.6241 H       1  UNL1        0.0624
     39 H           6.5559    0.2750    1.6062 H       1  UNL1        0.0629
     40 H           9.0356   -0.5006    1.0742 H       1  UNL1        0.0623
     41 H           9.0935   -2.0995   -1.0227 H       1  UNL1        0.0693
     42 H           5.3026    0.9186   -2.5400 H       1  UNL1        0.1036
     43 H           1.2295    1.4674   -2.6262 H       1  UNL1        0.1036
     44 H           0.9688    2.5343    0.7596 H       1  UNL1        0.0581
     45 H          -7.5611    1.0407   -1.7143 H       1  UNL1        0.0699
     46 H          -8.5425   -1.0356    0.4329 H       1  UNL1        0.0621
     47 H          -7.1885   -2.4956    2.1215 H       1  UNL1        0.0575
     48 H          -4.8443   -1.1502    2.2081 H       1  UNL1        0.0356
     49 H          -4.7347   -2.4682    0.9896 H       1  UNL1        0.0356
@<TRIPOS>BOND
     1     1     2    1
     2     2     3    2
     3     3     4   ar
     4     4     5   ar
     5     5     6   ar
     6     6     7   ar
     7     7     8    1
     8     8     9   ar
     9     9    10   ar
    10    10    11   ar
    11    11    12    1
    12    12    13   ar
    13    13    14   ar
    14    14    15   ar
    15    15    16   ar
    16    11    17   ar
    17    17    18   ar
    18    18    19   ar
    19    19    20   ar
    20    20    21   ar
    21     7    22   ar
    22    22    23    2
    23     4    24    1
    24    24    25   ar
    25    25    26   ar
    26    26    27   ar
    27    27    28    1
    28    28    29    2
    29    29    30    1
    30    30    31    1
    31    23     1    1
    32    31    24   ar
    33    22     3   ar
    34    31    27   ar
    35    21     8   ar
    36    16    12   ar
    37    21    17   ar
    38     1    32    1
    39     1    33    1
    40     2    34    1
    41     5    35    1
    42     6    36    1
    43     9    37    1
    44    10    38    1
    45    13    39    1
    46    14    40    1
    47    15    41    1
    48    18    42    1
    49    20    43    1
    50    23    44    1
    51    26    45    1
    52    28    46    1
    53    29    47    1
    54    30    48    1
    55    30    49    1
