@<TRIPOS>MOLECULE
*****
 50 56 0 0 0
SMALL
GASTEIGER

@<TRIPOS>ATOM
      1 C           2.8135   -3.2510    0.1157 C.3     1  UNL1        0.0000
      2 C           3.8878   -2.2017    0.1379 C.2     1  UNL1        0.0000
      3 C           3.3268   -0.9822    0.1499 C.ar    1  UNL1        0.0000
      4 C           3.9466    0.3404    0.1766 C.ar    1  UNL1        0.0000
      5 C           3.0917    1.3931    0.1466 C.ar    1  UNL1        0.0000
      6 C           1.6322    1.2502    0.1212 C.ar    1  UNL1        0.0000
      7 C           1.0131    0.0467    0.1037 C.ar    1  UNL1        0.0000
      8 C          -0.4451    0.0146    0.0797 C.ar    1  UNL1        0.0000
      9 C          -1.2899    0.3381    1.1699 C.ar    1  UNL1        0.0000
     10 C          -2.7276    0.2876    1.1151 C.ar    1  UNL1        0.0000
     11 C          -3.4671   -0.1022   -0.0309 C.ar    1  UNL1        0.0000
     12 C          -4.9107   -0.1412   -0.0837 C.ar    1  UNL1        0.0000
     13 S          -5.7693   -1.6178   -0.4301 S.2     1  UNL1        0.0000
     14 C          -7.3362   -0.8835   -0.2701 C.ar    1  UNL1        0.0000
     15 C          -7.1522    0.4127    0.0496 C.ar    1  UNL1        0.0000
     16 N          -8.1184    1.3480    0.2778 N.ar    1  UNL1        0.0000
     17 C          -7.3440    2.4719    0.5626 C.ar    1  UNL1        0.0000
     18 C          -5.9635    2.1834    0.4966 C.ar    1  UNL1        0.0000
     19 C          -5.8395    0.8117    0.1549 C.ar    1  UNL1        0.0000
     20 C          -2.6185   -0.4075   -1.0994 C.ar    1  UNL1        0.0000
     21 C          -2.9397   -0.7753   -2.3813 C.ar    1  UNL1        0.0000
     22 O          -1.7979   -0.9650   -3.1107 O.2     1  UNL1        0.0000
     23 C          -0.7358   -0.7042   -2.2902 C.ar    1  UNL1        0.0000
     24 C          -1.1891   -0.3529   -1.0447 C.ar    1  UNL1        0.0000
     25 C           1.8713   -1.1268    0.1216 C.ar    1  UNL1        0.0000
     26 C           1.5560   -2.4310    0.1096 C.2     1  UNL1        0.0000
     27 C           5.3697    0.5888    0.2011 C.2     1  UNL1        0.0000
     28 SI          6.3858    0.3228    1.7775 Si      1  UNL1        0.0000
     29 C           7.8906    0.8896    0.7920 C.2     1  UNL1        0.0000
     30 C           7.5583    1.1942   -0.4758 C.2     1  UNL1        0.0000
     31 C           6.1513    1.0285   -0.8066 C.2     1  UNL1        0.0000
     32 H           2.8653   -3.8861    1.0049 H       1  UNL1        0.0000
     33 H           2.8850   -3.8686   -0.7844 H       1  UNL1        0.0000
     34 H           4.9444   -2.4200    0.1393 H       1  UNL1        0.0000
     35 H           3.4660    2.4142    0.1481 H       1  UNL1        0.0000
     36 H           1.0635    2.1768    0.1073 H       1  UNL1        0.0000
     37 H          -0.8305    0.6387    2.1127 H       1  UNL1        0.0000
     38 H          -3.2745    0.5575    2.0201 H       1  UNL1        0.0000
     39 H          -8.2536   -1.4371   -0.4109 H       1  UNL1        0.0000
     40 H          -9.1236    1.2299    0.2430 H       1  UNL1        0.0000
     41 H          -7.8417    3.4057    0.7915 H       1  UNL1        0.0000
     42 H          -5.1661    2.8934    0.6727 H       1  UNL1        0.0000
     43 H          -3.8623   -0.9379   -2.9204 H       1  UNL1        0.0000
     44 H           0.2400   -0.8078   -2.7441 H       1  UNL1        0.0000
     45 H           0.5601   -2.8468    0.0884 H       1  UNL1        0.0000
     46 H           6.5035   -1.1050    2.1696 H       1  UNL1        0.0000
     47 H           6.0507    1.2827    2.8598 H       1  UNL1        0.0000
     48 H           8.8702    0.9419    1.2397 H       1  UNL1        0.0000
     49 H           8.2665    1.5400   -1.2189 H       1  UNL1        0.0000
     50 H           5.7872    1.2481   -1.8031 H       1  UNL1        0.0000
@<TRIPOS>BOND
     1     1     2    1
     2     2     3    2
     3     3     4   ar
     4     4     5   ar
     5     5     6   ar
     6     6     7   ar
     7     7     8    1
     8     8     9   ar
     9     9    10   ar
    10    10    11   ar
    11    11    12    1
    12    12    13   ar
    13    13    14   ar
    14    14    15   ar
    15    15    16   ar
    16    16    17   ar
    17    17    18   ar
    18    18    19   ar
    19    11    20   ar
    20    20    21   ar
    21    21    22   ar
    22    22    23   ar
    23    23    24   ar
    24     7    25   ar
    25    25    26    2
    26     4    27    1
    27    27    28    1
    28    28    29    1
    29    29    30    2
    30    30    31    1
    31    26     1    1
    32    31    27    2
    33    25     3   ar
    34    24     8   ar
    35    19    12   ar
    36    24    20   ar
    37    19    15   ar
    38     1    32    1
    39     1    33    1
    40     2    34    1
    41     5    35    1
    42     6    36    1
    43     9    37    1
    44    10    38    1
    45    14    39    1
    46    16    40    1
    47    17    41    1
    48    18    42    1
    49    21    43    1
    50    23    44    1
    51    26    45    1
    52    28    46    1
    53    28    47    1
    54    29    48    1
    55    30    49    1
    56    31    50    1
