@<TRIPOS>MOLECULE
*****
 49 55 0 0 0
SMALL
GASTEIGER

@<TRIPOS>ATOM
      1 C          -2.7854   -2.6977   -1.2424 C.3     1  UNL1       -0.0148
      2 C          -3.9562   -1.8357   -0.8701 C.2     1  UNL1       -0.0718
      3 C          -3.5259   -0.7222   -0.2548 C.ar    1  UNL1       -0.0106
      4 C          -4.2720    0.4079    0.2992 C.ar    1  UNL1        0.0247
      5 C          -3.5223    1.3784    0.8818 C.ar    1  UNL1       -0.0499
      6 C          -2.0578    1.3289    0.9711 C.ar    1  UNL1       -0.0528
      7 C          -1.3258    0.3112    0.4627 C.ar    1  UNL1       -0.0098
      8 C           0.1257    0.3588    0.6065 C.ar    1  UNL1       -0.0081
      9 C           0.8320    0.0976    1.8062 C.ar    1  UNL1       -0.0528
     10 C           2.2646    0.1447    1.9201 C.ar    1  UNL1       -0.0522
     11 C           3.1356    0.4530    0.8453 C.ar    1  UNL1       -0.0001
     12 C           4.5732    0.4810    0.9447 C.ar    1  UNL1        0.0438
     13 S           5.4246    1.5656    1.9931 S.2     1  UNL1       -0.0939
     14 C           6.9898    0.9657    1.5206 C.ar    1  UNL1       -0.0145
     15 C           6.7930   -0.0188    0.6203 C.ar    1  UNL1        0.0073
     16 C           7.5037   -0.9497   -0.1764 C.ar    1  UNL1       -0.0361
     17 C           6.5446   -1.6972   -0.8945 C.ar    1  UNL1        0.0028
     18 N           5.2459   -1.2900   -0.5947 N.ar    1  UNL1       -0.3598
     19 C           5.4802   -0.2893    0.3051 C.ar    1  UNL1        0.0614
     20 C           2.4242    0.7139   -0.3335 C.ar    1  UNL1        0.0082
     21 C           2.9213    1.0812   -1.5617 C.ar    1  UNL1        0.0100
     22 N           1.8462    1.2458   -2.4088 N.ar    1  UNL1       -0.3659
     23 C           0.6691    0.9938   -1.7394 C.ar    1  UNL1        0.0100
     24 C           0.9962    0.6675   -0.4455 C.ar    1  UNL1        0.0077
     25 C          -2.0647   -0.7679   -0.1701 C.ar    1  UNL1       -0.0134
     26 C          -1.6201   -1.9010   -0.7348 C.2     1  UNL1       -0.0719
     27 C          -5.7001    0.5671    0.2535 C.ar    1  UNL1        0.1354
     28 C          -6.5605    1.2884    1.0823 C.ar    1  UNL1       -0.0159
     29 C          -7.8835    1.1215    0.6088 C.ar    1  UNL1       -0.0233
     30 C          -7.7848    0.3045   -0.4853 C.ar    1  UNL1        0.0926
     31 O          -6.4940   -0.0356   -0.7057 O.2     1  UNL1       -0.4629
     32 H          -2.8412   -3.6720   -0.7482 H       1  UNL1        0.0350
     33 H          -2.7266   -2.8360   -2.3258 H       1  UNL1        0.0350
     34 H          -4.9841   -2.0933   -1.0742 H       1  UNL1        0.0581
     35 H          -3.9718    2.2726    1.3039 H       1  UNL1        0.0625
     36 H          -1.5789    2.1732    1.4612 H       1  UNL1        0.0624
     37 H           0.2618   -0.1605    2.6994 H       1  UNL1        0.0624
     38 H           2.6987   -0.0809    2.8952 H       1  UNL1        0.0624
     39 H           7.9003    1.3702    1.9373 H       1  UNL1        0.0700
     40 H           8.5753   -1.0848   -0.2383 H       1  UNL1        0.0639
     41 H           6.6890   -2.5013   -1.6045 H       1  UNL1        0.0807
     42 H           4.3478   -1.6158   -0.9334 H       1  UNL1        0.1654
     43 H           3.9284    1.2576   -1.9162 H       1  UNL1        0.0813
     44 H           1.9107    1.5268   -3.3787 H       1  UNL1        0.1648
     45 H          -0.2830    1.0825   -2.2462 H       1  UNL1        0.0813
     46 H          -0.5888   -2.2076   -0.8176 H       1  UNL1        0.0581
     47 H          -6.2608    1.8665    1.9455 H       1  UNL1        0.0655
     48 H          -8.7915    1.5410    1.0174 H       1  UNL1        0.0649
     49 H          -8.5019   -0.1093   -1.1802 H       1  UNL1        0.1029
@<TRIPOS>BOND
     1     1     2    1
     2     2     3    2
     3     3     4   ar
     4     4     5   ar
     5     5     6   ar
     6     6     7   ar
     7     7     8    1
     8     8     9   ar
     9     9    10   ar
    10    10    11   ar
    11    11    12    1
    12    12    13   ar
    13    13    14   ar
    14    14    15   ar
    15    15    16   ar
    16    16    17   ar
    17    17    18   ar
    18    18    19   ar
    19    11    20   ar
    20    20    21   ar
    21    21    22   ar
    22    22    23   ar
    23    23    24   ar
    24     7    25   ar
    25    25    26    2
    26     4    27    1
    27    27    28   ar
    28    28    29   ar
    29    29    30   ar
    30    30    31   ar
    31    26     1    1
    32    31    27   ar
    33    25     3   ar
    34    24     8   ar
    35    19    12   ar
    36    24    20   ar
    37    19    15   ar
    38     1    32    1
    39     1    33    1
    40     2    34    1
    41     5    35    1
    42     6    36    1
    43     9    37    1
    44    10    38    1
    45    14    39    1
    46    16    40    1
    47    17    41    1
    48    18    42    1
    49    21    43    1
    50    22    44    1
    51    23    45    1
    52    26    46    1
    53    28    47    1
    54    29    48    1
    55    30    49    1
