@<TRIPOS>MOLECULE
*****
 46 51 0 0 0
SMALL
GASTEIGER

@<TRIPOS>ATOM
      1 C           3.4045   -2.2985    1.7571 C.3     1  UNL1       -0.0148
      2 C           4.3259   -1.4582    0.9194 C.2     1  UNL1       -0.0719
      3 C           3.6170   -0.5165    0.2770 C.ar    1  UNL1       -0.0130
      4 C           4.0503    0.5260   -0.6479 C.ar    1  UNL1       -0.0039
      5 C           3.0760    1.3303   -1.1423 C.ar    1  UNL1       -0.0524
      6 C           1.6568    1.1776   -0.7996 C.ar    1  UNL1       -0.0529
      7 C           1.2074    0.2270    0.0530 C.ar    1  UNL1       -0.0104
      8 C          -0.2347    0.1527    0.3304 C.ar    1  UNL1       -0.0173
      9 C          -1.0405   -0.7517   -0.3689 C.ar    1  UNL1       -0.0534
     10 C          -2.4105   -0.8291   -0.1000 C.ar    1  UNL1       -0.0529
     11 C          -2.9960   -0.0091    0.8747 C.ar    1  UNL1       -0.0110
     12 C          -2.1822    0.8946    1.5721 C.ar    1  UNL1       -0.0529
     13 C          -0.8119    0.9742    1.3042 C.ar    1  UNL1       -0.0534
     14 C          -4.4341   -0.0925    1.1347 C.ar    1  UNL1        0.0234
     15 S          -5.0270   -0.3058    2.7525 S.2     1  UNL1       -0.0958
     16 C          -6.6807   -0.3260    2.2532 C.ar    1  UNL1       -0.0163
     17 C          -6.7439   -0.1786    0.9024 C.ar    1  UNL1       -0.0142
     18 C          -7.7753   -0.1126   -0.0659 C.2     1  UNL1       -0.0574
     19 C          -7.2243    0.0542   -1.2900 C.2     1  UNL1       -0.0791
     20 C          -5.6944    0.1114   -1.2099 C.3     1  UNL1       -0.0075
     21 C          -5.4910   -0.0514    0.2593 C.ar    1  UNL1       -0.0217
     22 C           2.2041   -0.6632    0.6248 C.ar    1  UNL1       -0.0135
     23 C           2.0618   -1.6852    1.4822 C.2     1  UNL1       -0.0719
     24 C           5.4072    0.7843   -1.0237 C.ar    1  UNL1        0.0199
     25 C           6.4734    1.1408   -0.2138 C.ar    1  UNL1       -0.0469
     26 C           7.6931    1.2991   -0.9330 C.ar    1  UNL1       -0.0541
     27 C           7.5317    1.0499   -2.2759 C.ar    1  UNL1       -0.0237
     28 S           5.9223    0.6262   -2.6621 S.2     1  UNL1       -0.0966
     29 H           3.6611   -2.2260    2.8180 H       1  UNL1        0.0350
     30 H           3.4309   -3.3456    1.4413 H       1  UNL1        0.0350
     31 H           5.3924   -1.6094    0.8527 H       1  UNL1        0.0581
     32 H           3.3096    2.1476   -1.8204 H       1  UNL1        0.0624
     33 H           0.9720    1.8777   -1.2718 H       1  UNL1        0.0624
     34 H          -0.6047   -1.4036   -1.1228 H       1  UNL1        0.0624
     35 H          -3.0145   -1.5483   -0.6483 H       1  UNL1        0.0624
     36 H          -2.6088    1.5516    2.3269 H       1  UNL1        0.0624
     37 H          -0.1984    1.6788    1.8612 H       1  UNL1        0.0624
     38 H          -7.4778   -0.4420    2.9733 H       1  UNL1        0.0699
     39 H          -8.8320   -0.1831    0.1498 H       1  UNL1        0.0621
     40 H          -7.7748    0.1384   -2.2150 H       1  UNL1        0.0575
     41 H          -5.3223    1.0751   -1.5684 H       1  UNL1        0.0356
     42 H          -5.2483   -0.7090   -1.7786 H       1  UNL1        0.0356
     43 H           1.1340   -2.0296    1.9131 H       1  UNL1        0.0581
     44 H           6.3753    1.2863    0.8557 H       1  UNL1        0.0629
     45 H           8.6392    1.5792   -0.4866 H       1  UNL1        0.0623
     46 H           8.2826    1.0923   -3.0528 H       1  UNL1        0.0693
@<TRIPOS>BOND
     1     1     2    1
     2     2     3    2
     3     3     4   ar
     4     4     5   ar
     5     5     6   ar
     6     6     7   ar
     7     7     8    1
     8     8     9   ar
     9     9    10   ar
    10    10    11   ar
    11    11    12   ar
    12    12    13   ar
    13    11    14    1
    14    14    15   ar
    15    15    16   ar
    16    16    17   ar
    17    17    18    1
    18    18    19    2
    19    19    20    1
    20    20    21    1
    21     7    22   ar
    22    22    23    2
    23     4    24    1
    24    24    25   ar
    25    25    26   ar
    26    26    27   ar
    27    27    28   ar
    28    23     1    1
    29    28    24   ar
    30    22     3   ar
    31    13     8   ar
    32    21    14   ar
    33    21    17   ar
    34     1    29    1
    35     1    30    1
    36     2    31    1
    37     5    32    1
    38     6    33    1
    39     9    34    1
    40    10    35    1
    41    12    36    1
    42    13    37    1
    43    16    38    1
    44    18    39    1
    45    19    40    1
    46    20    41    1
    47    20    42    1
    48    23    43    1
    49    25    44    1
    50    26    45    1
    51    27    46    1
