@<TRIPOS>MOLECULE
*****
 43 48 0 0 0
SMALL
GASTEIGER

@<TRIPOS>ATOM
      1 C          -0.4780   -2.5058   -1.8863 C.3     1  UNL1       -0.0148
      2 C           0.6320   -1.8290   -1.1336 C.2     1  UNL1       -0.0719
      3 C           0.1679   -0.7206   -0.5326 C.ar    1  UNL1       -0.0115
      4 C           0.8409    0.2692    0.3092 C.ar    1  UNL1        0.0146
      5 C           0.0502    1.2480    0.8198 C.ar    1  UNL1       -0.0509
      6 C          -1.3839    1.3631    0.5383 C.ar    1  UNL1       -0.0528
      7 C          -2.0481    0.4842   -0.2466 C.ar    1  UNL1       -0.0098
      8 C          -3.4747    0.6919   -0.4662 C.ar    1  UNL1       -0.0066
      9 C          -4.0461    1.7021   -1.2800 C.ar    1  UNL1       -0.0533
     10 C          -5.4642    1.8690   -1.4817 C.ar    1  UNL1       -0.0605
     11 C          -6.4570    1.0478   -0.8950 C.ar    1  UNL1       -0.0510
     12 C          -5.8682    0.0692   -0.1054 C.ar    1  UNL1        0.0204
     13 C          -6.5048   -0.9020    0.6192 C.ar    1  UNL1        0.0994
     14 O          -5.5748   -1.6695    1.2680 O.2     1  UNL1       -0.4698
     15 C          -4.3370   -1.1765    0.9508 C.ar    1  UNL1        0.1000
     16 C          -4.4685   -0.1073    0.1021 C.ar    1  UNL1        0.0276
     17 C          -1.2662   -0.6028   -0.8136 C.ar    1  UNL1       -0.0134
     18 C          -1.6515   -1.6169   -1.6032 C.2     1  UNL1       -0.0719
     19 C           2.2325    0.3204    0.6622 C.ar    1  UNL1        0.1094
     20 N           2.7186    0.5679    1.8674 N.ar    1  UNL1       -0.2466
     21 C           4.1001    0.5750    1.8429 C.ar    1  UNL1        0.0462
     22 C           4.6840    0.3623    0.6125 C.ar    1  UNL1        0.0744
     23 S           3.4558    0.1472   -0.5575 S.2     1  UNL1       -0.0641
     24 C           6.0870    0.3263    0.3162 C.ar    1  UNL1        0.1428
     25 C           6.7405    0.1266   -0.8914 C.ar    1  UNL1       -0.0153
     26 C           8.1327    0.1846   -0.6370 C.ar    1  UNL1       -0.0233
     27 C           8.2600    0.4161    0.7091 C.ar    1  UNL1        0.0926
     28 O           7.0393    0.5032    1.2918 O.2     1  UNL1       -0.4624
     29 H          -0.6501   -3.5174   -1.5072 H       1  UNL1        0.0350
     30 H          -0.2608   -2.5447   -2.9577 H       1  UNL1        0.0350
     31 H           1.6399   -2.2113   -1.0973 H       1  UNL1        0.0581
     32 H           0.4648    2.0172    1.4695 H       1  UNL1        0.0625
     33 H          -1.8955    2.2013    1.0056 H       1  UNL1        0.0624
     34 H          -3.3782    2.3956   -1.7931 H       1  UNL1        0.0624
     35 H          -5.7892    2.6827   -2.1320 H       1  UNL1        0.0618
     36 H          -7.5171    1.1839   -1.0539 H       1  UNL1        0.0625
     37 H          -7.5354   -1.1812    0.7850 H       1  UNL1        0.1035
     38 H          -3.5011   -1.6916    1.4032 H       1  UNL1        0.1036
     39 H          -2.6504   -1.7945   -1.9722 H       1  UNL1        0.0581
     40 H           4.6417    0.7476    2.7657 H       1  UNL1        0.0842
     41 H           6.2681   -0.0416   -1.8495 H       1  UNL1        0.0656
     42 H           8.9400    0.0718   -1.3467 H       1  UNL1        0.0649
     43 H           9.1047    0.5384    1.3728 H       1  UNL1        0.1029
@<TRIPOS>BOND
     1     1     2    1
     2     2     3    2
     3     3     4   ar
     4     4     5   ar
     5     5     6   ar
     6     6     7   ar
     7     7     8    1
     8     8     9   ar
     9     9    10   ar
    10    10    11   ar
    11    11    12   ar
    12    12    13   ar
    13    13    14   ar
    14    14    15   ar
    15    15    16   ar
    16     7    17   ar
    17    17    18    2
    18     4    19    1
    19    19    20   ar
    20    20    21   ar
    21    21    22   ar
    22    22    23   ar
    23    22    24    1
    24    24    25   ar
    25    25    26   ar
    26    26    27   ar
    27    27    28   ar
    28    18     1    1
    29    23    19   ar
    30    28    24   ar
    31    17     3   ar
    32    16     8   ar
    33    16    12   ar
    34     1    29    1
    35     1    30    1
    36     2    31    1
    37     5    32    1
    38     6    33    1
    39     9    34    1
    40    10    35    1
    41    11    36    1
    42    13    37    1
    43    15    38    1
    44    18    39    1
    45    21    40    1
    46    25    41    1
    47    26    42    1
    48    27    43    1
