@<TRIPOS>MOLECULE
*****
 45 51 0 0 0
SMALL
GASTEIGER

@<TRIPOS>ATOM
      1 C          -1.6088    1.1400   -2.9643 C.3     1  UNL1       -0.0148
      2 C          -0.3633    0.7911   -2.2031 C.2     1  UNL1       -0.0719
      3 C          -0.6928    0.3573   -0.9760 C.ar    1  UNL1       -0.0129
      4 C           0.1589   -0.0836    0.1217 C.ar    1  UNL1       -0.0018
      5 C          -0.4777   -0.4449    1.2618 C.ar    1  UNL1       -0.0523
      6 C          -1.9373   -0.4121    1.4111 C.ar    1  UNL1       -0.0513
      7 C          -2.7798   -0.0122    0.4259 C.ar    1  UNL1        0.0100
      8 C          -4.2342   -0.0339    0.6469 C.ar    1  UNL1        0.0996
      9 N          -5.0475   -0.6199   -0.2937 N.ar    1  UNL1       -0.2527
     10 C          -6.4067   -0.6606   -0.1368 C.ar    1  UNL1        0.0304
     11 C          -7.1477   -0.1466    0.9209 C.ar    1  UNL1       -0.0153
     12 C          -6.3595    0.4742    1.9074 C.ar    1  UNL1        0.1034
     13 N          -6.8314    1.0523    3.0233 N.ar    1  UNL1       -0.1907
     14 S          -5.5148    1.6430    3.8417 S.2     1  UNL1        0.1165
     15 N          -4.2881    1.1831    2.8262 N.ar    1  UNL1       -0.1886
     16 C          -4.8578    0.5440    1.7862 C.ar    1  UNL1        0.1257
     17 C          -2.1487    0.3879   -0.8281 C.ar    1  UNL1       -0.0120
     18 C          -2.6919    0.8393   -1.9699 C.2     1  UNL1       -0.0719
     19 C           1.5741   -0.1928    0.0789 C.ar    1  UNL1        0.0444
     20 S           2.6705    0.7722    1.0151 S.2     1  UNL1       -0.0824
     21 C           4.0940    0.0257    0.3437 C.ar    1  UNL1        0.0641
     22 C           5.4301    0.3890    0.7176 C.ar    1  UNL1        0.1420
     23 C           5.8710    1.3456    1.6214 C.ar    1  UNL1       -0.0154
     24 C           7.2867    1.3099    1.6250 C.ar    1  UNL1       -0.0233
     25 C           7.6403    0.3363    0.7259 C.ar    1  UNL1        0.0926
     26 O           6.5358   -0.2232    0.1751 O.2     1  UNL1       -0.4624
     27 C           3.6727   -0.9046   -0.5435 C.ar    1  UNL1        0.0180
     28 C           4.1664   -1.8799   -1.4506 C.ar    1  UNL1       -0.0354
     29 C           3.0487   -2.4947   -2.0539 C.ar    1  UNL1        0.0028
     30 N           1.8528   -1.9627   -1.5782 N.ar    1  UNL1       -0.3597
     31 C           2.3081   -1.0270   -0.6914 C.ar    1  UNL1        0.0622
     32 H          -1.7110    0.5189   -3.8589 H       1  UNL1        0.0350
     33 H          -1.6152    2.1971   -3.2456 H       1  UNL1        0.0350
     34 H           0.6367    0.8934   -2.5973 H       1  UNL1        0.0581
     35 H           0.0762   -0.7981    2.1289 H       1  UNL1        0.0624
     36 H          -2.3099   -0.7474    2.3763 H       1  UNL1        0.0624
     37 H          -6.9230   -1.1604   -0.9567 H       1  UNL1        0.0830
     38 H          -8.2244   -0.2129    0.9804 H       1  UNL1        0.0655
     39 H          -3.7452    0.9742   -2.1634 H       1  UNL1        0.0581
     40 H           5.2414    1.9968    2.2119 H       1  UNL1        0.0656
     41 H           7.9619    1.9182    2.2098 H       1  UNL1        0.0649
     42 H           8.5853   -0.0594    0.3812 H       1  UNL1        0.1029
     43 H           5.2021   -2.1204   -1.6527 H       1  UNL1        0.0639
     44 H           3.0133   -3.2826   -2.7952 H       1  UNL1        0.0807
     45 H           0.8893   -2.1811   -1.8050 H       1  UNL1        0.1654
@<TRIPOS>BOND
     1     1     2    1
     2     2     3    2
     3     3     4   ar
     4     4     5   ar
     5     5     6   ar
     6     6     7   ar
     7     7     8    1
     8     8     9   ar
     9     9    10   ar
    10    10    11   ar
    11    11    12   ar
    12    12    13   ar
    13    13    14   ar
    14    14    15   ar
    15    15    16   ar
    16     7    17   ar
    17    17    18    2
    18     4    19    1
    19    19    20   ar
    20    20    21   ar
    21    21    22    1
    22    22    23   ar
    23    23    24   ar
    24    24    25   ar
    25    25    26   ar
    26    21    27   ar
    27    27    28   ar
    28    28    29   ar
    29    29    30   ar
    30    30    31   ar
    31    18     1    1
    32    31    19   ar
    33    17     3   ar
    34    26    22   ar
    35    31    27   ar
    36    16     8   ar
    37    16    12   ar
    38     1    32    1
    39     1    33    1
    40     2    34    1
    41     5    35    1
    42     6    36    1
    43    10    37    1
    44    11    38    1
    45    18    39    1
    46    23    40    1
    47    24    41    1
    48    25    42    1
    49    28    43    1
    50    29    44    1
    51    30    45    1
