@<TRIPOS>MOLECULE
*****
 42 47 0 0 0
SMALL
GASTEIGER

@<TRIPOS>ATOM
      1 C           2.4192    2.8658   -0.1407 C.3     1  UNL1        0.0000
      2 C           1.2740    1.9411    0.1434 C.2     1  UNL1        0.0000
      3 C           1.7152    0.6738    0.1747 C.ar    1  UNL1        0.0000
      4 C           0.9714   -0.5651    0.3803 C.ar    1  UNL1        0.0000
      5 C           1.7065   -1.7026    0.3593 C.ar    1  UNL1        0.0000
      6 C           3.1528   -1.7227    0.1257 C.ar    1  UNL1        0.0000
      7 C           3.8994   -0.6051   -0.0629 C.ar    1  UNL1        0.0000
      8 C           5.3099   -0.8011   -0.2510 C.ar    1  UNL1        0.0000
      9 N           5.8717   -1.7273   -1.0131 N.ar    1  UNL1        0.0000
     10 C           7.2476   -1.6597   -0.9388 C.ar    1  UNL1        0.0000
     11 C           7.7489   -0.6962   -0.0965 C.ar    1  UNL1        0.0000
     12 S           6.4602    0.1564    0.6346 S.2     1  UNL1        0.0000
     13 C           3.1634    0.6583   -0.0573 C.ar    1  UNL1        0.0000
     14 C           3.5788    1.9197   -0.2607 C.2     1  UNL1        0.0000
     15 C          -0.4488   -0.6477    0.6282 C.2     1  UNL1        0.0000
     16 SI         -1.7047   -0.4466   -0.7851 Si      1  UNL1        0.0000
     17 C          -3.0509   -0.6935    0.5095 C.2     1  UNL1        0.0000
     18 C          -2.5303   -0.8975    1.7359 C.2     1  UNL1        0.0000
     19 C          -1.0756   -0.8650    1.8028 C.2     1  UNL1        0.0000
     20 C          -4.4233   -0.7099    0.2078 C.ar    1  UNL1        0.0000
     21 S          -5.3933   -2.1391    0.2847 S.2     1  UNL1        0.0000
     22 C          -6.8233   -1.3172   -0.2102 C.ar    1  UNL1        0.0000
     23 C          -6.5119   -0.0157   -0.3960 C.ar    1  UNL1        0.0000
     24 C          -7.2705    1.1141   -0.7849 C.ar    1  UNL1        0.0000
     25 C          -6.5013    2.2823   -0.8318 C.ar    1  UNL1        0.0000
     26 S          -4.8024    2.1162   -0.4085 S.2     1  UNL1        0.0000
     27 C          -5.1883    0.3643   -0.1701 C.ar    1  UNL1        0.0000
     28 H           2.2604    3.4137   -1.0741 H       1  UNL1        0.0000
     29 H           2.5703    3.5719    0.6810 H       1  UNL1        0.0000
     30 H           0.2556    2.2684    0.2859 H       1  UNL1        0.0000
     31 H           1.2397   -2.6724    0.5156 H       1  UNL1        0.0000
     32 H           3.6150   -2.7084    0.1233 H       1  UNL1        0.0000
     33 H           7.8432   -2.3494   -1.5243 H       1  UNL1        0.0000
     34 H           8.7808   -0.4644    0.1231 H       1  UNL1        0.0000
     35 H           4.5841    2.2421   -0.4817 H       1  UNL1        0.0000
     36 H          -1.6882    0.9243   -1.3599 H       1  UNL1        0.0000
     37 H          -1.6378   -1.5654   -1.7618 H       1  UNL1        0.0000
     38 H          -3.1173   -1.0765    2.6291 H       1  UNL1        0.0000
     39 H          -0.5619   -1.0061    2.7463 H       1  UNL1        0.0000
     40 H          -7.7657   -1.8346   -0.3198 H       1  UNL1        0.0000
     41 H          -8.3274    1.1044   -1.0218 H       1  UNL1        0.0000
     42 H          -6.8454    3.2727   -1.0977 H       1  UNL1        0.0000
@<TRIPOS>BOND
     1     1     2    1
     2     2     3    2
     3     3     4   ar
     4     4     5   ar
     5     5     6   ar
     6     6     7   ar
     7     7     8    1
     8     8     9   ar
     9     9    10   ar
    10    10    11   ar
    11    11    12   ar
    12     7    13   ar
    13    13    14    2
    14     4    15    1
    15    15    16    1
    16    16    17    1
    17    17    18    2
    18    18    19    1
    19    17    20    1
    20    20    21   ar
    21    21    22   ar
    22    22    23   ar
    23    23    24   ar
    24    24    25   ar
    25    25    26   ar
    26    26    27   ar
    27    14     1    1
    28    19    15    2
    29    27    20   ar
    30    13     3   ar
    31    27    23   ar
    32    12     8   ar
    33     1    28    1
    34     1    29    1
    35     2    30    1
    36     5    31    1
    37     6    32    1
    38    10    33    1
    39    11    34    1
    40    14    35    1
    41    16    36    1
    42    16    37    1
    43    18    38    1
    44    19    39    1
    45    22    40    1
    46    24    41    1
    47    25    42    1
