@<TRIPOS>MOLECULE
*****
 44 49 0 0 0
SMALL
GASTEIGER

@<TRIPOS>ATOM
      1 C          -2.5634    2.4054   -1.8011 C.3     1  UNL1       -0.0148
      2 C          -1.2894    1.8121   -1.2832 C.2     1  UNL1       -0.0719
      3 C          -1.5705    0.7713   -0.4834 C.ar    1  UNL1       -0.0128
      4 C          -0.6654   -0.1190    0.2308 C.ar    1  UNL1       -0.0017
      5 C          -1.2493   -1.1019    0.9565 C.ar    1  UNL1       -0.0522
      6 C          -2.7019   -1.2845    1.0338 C.ar    1  UNL1       -0.0499
      7 C          -3.6022   -0.4895    0.3976 C.ar    1  UNL1        0.0266
      8 C          -5.0548   -0.7694    0.5717 C.ar    1  UNL1        0.1636
      9 N          -5.4092   -1.9901    0.9959 N.ar    1  UNL1       -0.2160
     10 C          -6.7182   -2.1770    1.1398 C.ar    1  UNL1        0.1200
     11 N          -7.6680   -1.2763    0.9102 N.ar    1  UNL1       -0.2241
     12 C          -7.2009   -0.1015    0.5000 C.ar    1  UNL1        0.1200
     13 N          -5.9224    0.2130    0.3120 N.ar    1  UNL1       -0.2160
     14 C          -3.0254    0.5913   -0.4075 C.ar    1  UNL1       -0.0105
     15 C          -3.6074    1.5290   -1.1739 C.2     1  UNL1       -0.0718
     16 C           0.7627   -0.0233    0.2359 C.ar    1  UNL1        0.0480
     17 S           1.7184   -1.2474   -0.5180 S.2     1  UNL1       -0.0823
     18 C           3.2191   -0.4797   -0.1424 C.ar    1  UNL1        0.0655
     19 C           4.4793   -1.1074   -0.5611 C.ar    1  UNL1        0.0796
     20 C           5.6024   -0.3629   -0.9121 C.ar    1  UNL1       -0.0351
     21 C           6.7637   -1.0299   -1.2979 C.ar    1  UNL1       -0.0583
     22 C           6.7748   -2.4181   -1.3239 C.ar    1  UNL1       -0.0436
     23 C           5.6180   -3.0849   -0.9617 C.ar    1  UNL1        0.0283
     24 N           4.4791   -2.4646   -0.5841 N.ar    1  UNL1       -0.2544
     25 C           2.9889    0.7028    0.5301 C.ar    1  UNL1        0.1060
     26 N           3.9830    1.5401    0.9572 N.ar    1  UNL1       -0.2507
     27 C           3.4747    2.6221    1.6047 C.ar    1  UNL1        0.0464
     28 C           2.1157    2.8710    1.8119 C.ar    1  UNL1        0.0464
     29 N           1.1049    2.0662    1.3969 N.ar    1  UNL1       -0.2508
     30 C           1.5814    0.9625    0.7470 C.ar    1  UNL1        0.1046
     31 H          -2.6082    2.3509   -2.8927 H       1  UNL1        0.0350
     32 H          -2.6752    3.4446   -1.4784 H       1  UNL1        0.0350
     33 H          -0.3051    2.1809   -1.5264 H       1  UNL1        0.0581
     34 H          -0.6554   -1.8072    1.5332 H       1  UNL1        0.0624
     35 H          -3.0247   -2.1132    1.6605 H       1  UNL1        0.0625
     36 H          -7.0399   -3.1563    1.4772 H       1  UNL1        0.1048
     37 H          -7.9312    0.6749    0.2992 H       1  UNL1        0.1048
     38 H          -4.6656    1.6611   -1.3360 H       1  UNL1        0.0581
     39 H           5.5863    0.7218   -0.8940 H       1  UNL1        0.0639
     40 H           7.6504   -0.4670   -1.5746 H       1  UNL1        0.0619
     41 H           7.6619   -2.9670   -1.6187 H       1  UNL1        0.0633
     42 H           5.5727   -4.1702   -0.9651 H       1  UNL1        0.0830
     43 H           4.2180    3.3229    1.9746 H       1  UNL1        0.0845
     44 H           1.7983    3.7646    2.3418 H       1  UNL1        0.0845
@<TRIPOS>BOND
     1     1     2    1
     2     2     3    2
     3     3     4   ar
     4     4     5   ar
     5     5     6   ar
     6     6     7   ar
     7     7     8    1
     8     8     9   ar
     9     9    10   ar
    10    10    11   ar
    11    11    12   ar
    12    12    13   ar
    13     7    14   ar
    14    14    15    2
    15     4    16    1
    16    16    17   ar
    17    17    18   ar
    18    18    19    1
    19    19    20   ar
    20    20    21   ar
    21    21    22   ar
    22    22    23   ar
    23    23    24   ar
    24    18    25   ar
    25    25    26   ar
    26    26    27   ar
    27    27    28   ar
    28    28    29   ar
    29    29    30   ar
    30    15     1    1
    31    30    16   ar
    32    14     3   ar
    33    24    19   ar
    34    30    25   ar
    35    13     8   ar
    36     1    31    1
    37     1    32    1
    38     2    33    1
    39     5    34    1
    40     6    35    1
    41    10    36    1
    42    12    37    1
    43    15    38    1
    44    20    39    1
    45    21    40    1
    46    22    41    1
    47    23    42    1
    48    27    43    1
    49    28    44    1
