@<TRIPOS>MOLECULE
*****
 47 53 0 0 0
SMALL
GASTEIGER

@<TRIPOS>ATOM
      1 C          -0.8145   -0.8946   -3.1349 C.3     1  UNL1       -0.0148
      2 C          -2.0734   -0.6782   -2.3474 C.2     1  UNL1       -0.0719
      3 C          -1.7708   -0.1446   -1.1534 C.ar    1  UNL1       -0.0130
      4 C          -2.6456    0.2691   -0.0643 C.ar    1  UNL1       -0.0036
      5 C          -2.0385    0.8161    1.0159 C.ar    1  UNL1       -0.0523
      6 C          -0.5842    0.9893    1.1153 C.ar    1  UNL1       -0.0523
      7 C           0.2796    0.6105    0.1410 C.ar    1  UNL1       -0.0017
      8 C           1.6800    0.8026    0.3763 C.ar    1  UNL1        0.0480
      9 S           2.7397   -0.5608    0.4139 S.2     1  UNL1       -0.0833
     10 C           4.1461    0.3884    0.7119 C.ar    1  UNL1        0.0539
     11 C           5.4401   -0.2456    0.8174 C.ar    1  UNL1        0.0280
     12 C           5.7477   -1.4292    1.4684 C.ar    1  UNL1       -0.0464
     13 C           7.1260   -1.7788    1.3580 C.ar    1  UNL1       -0.0541
     14 C           7.8315   -0.8557    0.6197 C.ar    1  UNL1       -0.0237
     15 S           6.8355    0.4167    0.0631 S.2     1  UNL1       -0.0961
     16 C           3.8119    1.7230    0.8150 C.ar    1  UNL1        0.1050
     17 N           4.7094    2.7190    1.0821 N.ar    1  UNL1       -0.2507
     18 C           4.1066    3.9363    1.1181 C.ar    1  UNL1        0.0464
     19 C           2.7416    4.1625    0.9231 C.ar    1  UNL1        0.0464
     20 N           1.8189    3.1971    0.6727 N.ar    1  UNL1       -0.2508
     21 C           2.3965    1.9585    0.6210 C.ar    1  UNL1        0.1045
     22 C          -0.3208    0.0288   -1.0560 C.ar    1  UNL1       -0.0129
     23 C           0.2464   -0.3939   -2.1977 C.2     1  UNL1       -0.0719
     24 C          -4.0629    0.1020   -0.0368 C.ar    1  UNL1        0.0239
     25 S          -5.1372    1.4727   -0.0881 S.2     1  UNL1       -0.0958
     26 C          -6.5597    0.4949   -0.0586 C.ar    1  UNL1       -0.0163
     27 C          -6.2020   -0.8173   -0.0099 C.ar    1  UNL1       -0.0142
     28 C          -6.8840   -2.0574    0.0350 C.2     1  UNL1       -0.0574
     29 C          -5.9771   -3.0613    0.0694 C.2     1  UNL1       -0.0791
     30 C          -4.5431   -2.5190    0.0463 C.3     1  UNL1       -0.0075
     31 C          -4.8085   -1.0516   -0.0039 C.ar    1  UNL1       -0.0217
     32 H          -0.8256   -0.3148   -4.0625 H       1  UNL1        0.0350
     33 H          -0.6698   -1.9546   -3.3640 H       1  UNL1        0.0350
     34 H          -3.0647   -0.9024   -2.7115 H       1  UNL1        0.0581
     35 H          -2.6130    1.1383    1.8809 H       1  UNL1        0.0624
     36 H          -0.2284    1.4362    2.0416 H       1  UNL1        0.0624
     37 H           5.0195   -2.0218    2.0106 H       1  UNL1        0.0629
     38 H           7.5749   -2.6612    1.7989 H       1  UNL1        0.0623
     39 H           8.8861   -0.8651    0.3787 H       1  UNL1        0.0693
     40 H           4.7744    4.7701    1.3170 H       1  UNL1        0.0845
     41 H           2.3440    5.1732    0.9679 H       1  UNL1        0.0845
     42 H           1.2986   -0.3774   -2.4356 H       1  UNL1        0.0581
     43 H          -7.5431    0.9429   -0.0775 H       1  UNL1        0.0699
     44 H          -7.9586   -2.1727    0.0430 H       1  UNL1        0.0621
     45 H          -6.2132   -4.1141    0.1114 H       1  UNL1        0.0575
     46 H          -4.0115   -2.8714   -0.8421 H       1  UNL1        0.0356
     47 H          -4.0048   -2.8047    0.9547 H       1  UNL1        0.0356
@<TRIPOS>BOND
     1     1     2    1
     2     2     3    2
     3     3     4   ar
     4     4     5   ar
     5     5     6   ar
     6     6     7   ar
     7     7     8    1
     8     8     9   ar
     9     9    10   ar
    10    10    11    1
    11    11    12   ar
    12    12    13   ar
    13    13    14   ar
    14    14    15   ar
    15    10    16   ar
    16    16    17   ar
    17    17    18   ar
    18    18    19   ar
    19    19    20   ar
    20    20    21   ar
    21     7    22   ar
    22    22    23    2
    23     4    24    1
    24    24    25   ar
    25    25    26   ar
    26    26    27   ar
    27    27    28    1
    28    28    29    2
    29    29    30    1
    30    30    31    1
    31    23     1    1
    32    31    24   ar
    33    22     3   ar
    34    31    27   ar
    35    21     8   ar
    36    15    11   ar
    37    21    16   ar
    38     1    32    1
    39     1    33    1
    40     2    34    1
    41     5    35    1
    42     6    36    1
    43    12    37    1
    44    13    38    1
    45    14    39    1
    46    18    40    1
    47    19    41    1
    48    23    42    1
    49    26    43    1
    50    28    44    1
    51    29    45    1
    52    30    46    1
    53    30    47    1
