@<TRIPOS>MOLECULE
*****
 45 51 0 0 0
SMALL
GASTEIGER

@<TRIPOS>ATOM
      1 SI         -2.2724    3.7046    2.0500 Si      1  UNL1        0.0000
      2 C          -3.1389    2.2291    1.3213 C.2     1  UNL1        0.0000
      3 C          -2.2584    1.3603    0.7875 C.ar    1  UNL1        0.0000
      4 C          -2.5512    0.1448    0.1080 C.ar    1  UNL1        0.0000
      5 C          -3.7286   -0.4329   -0.3385 C.ar    1  UNL1        0.0000
      6 SI         -5.5764   -0.2443   -0.4053 Si      1  UNL1        0.0000
      7 C          -5.6143   -1.8183   -1.5588 C.2     1  UNL1        0.0000
      8 C          -4.3746   -2.3080   -1.7843 C.2     1  UNL1        0.0000
      9 C          -3.4136   -1.5265   -1.1074 C.ar    1  UNL1        0.0000
     10 N          -2.0592   -1.6451   -1.1463 N.ar    1  UNL1        0.0000
     11 C          -1.5033   -0.6890   -0.3049 C.ar    1  UNL1        0.0000
     12 C          -0.0551   -0.4342   -0.0728 C.ar    1  UNL1        0.0000
     13 C           0.9865   -1.3833   -0.3301 C.ar    1  UNL1        0.0000
     14 C           0.7616   -2.7671   -0.5619 C.ar    1  UNL1        0.0000
     15 C           1.7866   -3.6597   -0.8794 C.ar    1  UNL1        0.0000
     16 C           3.0872   -3.2025   -0.9568 C.ar    1  UNL1        0.0000
     17 C           3.3583   -1.8673   -0.6679 C.ar    1  UNL1        0.0000
     18 C           2.3413   -0.9431   -0.3152 C.ar    1  UNL1        0.0000
     19 C           2.6355    0.3964    0.0540 C.ar    1  UNL1        0.0000
     20 C           1.6049    1.2660    0.4370 C.ar    1  UNL1        0.0000
     21 C           0.2678    0.8673    0.4084 C.ar    1  UNL1        0.0000
     22 C          -0.8280    1.7611    0.8999 C.ar    1  UNL1        0.0000
     23 C          -0.6468    2.9466    1.5244 C.2     1  UNL1        0.0000
     24 C           3.9935    0.9313    0.0926 C.ar    1  UNL1        0.0000
     25 C           4.6188    1.9959   -0.5249 C.ar    1  UNL1        0.0000
     26 C           5.9482    2.0187   -0.0368 C.ar    1  UNL1        0.0000
     27 C           6.0454    0.9778    0.8563 C.ar    1  UNL1        0.0000
     28 O           4.8630    0.3157    0.9458 O.2     1  UNL1        0.0000
     29 H          -2.4112    3.7806    3.5241 H       1  UNL1        0.0000
     30 H          -2.5705    4.9601    1.3194 H       1  UNL1        0.0000
     31 H          -4.2115    2.1483    1.3479 H       1  UNL1        0.0000
     32 H          -6.2919   -0.5303    0.8645 H       1  UNL1        0.0000
     33 H          -6.0685    0.9420   -1.1517 H       1  UNL1        0.0000
     34 H          -6.5568   -2.1848   -1.9308 H       1  UNL1        0.0000
     35 H          -4.1491   -3.1711   -2.3964 H       1  UNL1        0.0000
     36 H          -1.5444   -2.2865   -1.7314 H       1  UNL1        0.0000
     37 H          -0.2270   -3.1970   -0.4346 H       1  UNL1        0.0000
     38 H           1.5641   -4.7098   -1.0483 H       1  UNL1        0.0000
     39 H           3.8977   -3.8820   -1.2050 H       1  UNL1        0.0000
     40 H           4.4005   -1.5540   -0.7025 H       1  UNL1        0.0000
     41 H           1.8693    2.2669    0.7672 H       1  UNL1        0.0000
     42 H           0.2764    3.4485    1.7594 H       1  UNL1        0.0000
     43 H           4.1676    2.6681   -1.2412 H       1  UNL1        0.0000
     44 H           6.7361    2.7107   -0.2982 H       1  UNL1        0.0000
     45 H           6.8414    0.5960    1.4803 H       1  UNL1        0.0000
@<TRIPOS>BOND
     1     1     2    1
     2     2     3    2
     3     3     4   ar
     4     4     5   ar
     5     5     6    1
     6     6     7    1
     7     7     8    2
     8     8     9    1
     9     9    10   ar
    10    10    11   ar
    11    11    12   ar
    12    12    13   ar
    13    13    14   ar
    14    14    15   ar
    15    15    16   ar
    16    16    17   ar
    17    17    18   ar
    18    18    19   ar
    19    19    20   ar
    20    20    21   ar
    21    21    22   ar
    22    22    23    2
    23    19    24    1
    24    24    25   ar
    25    25    26   ar
    26    26    27   ar
    27    27    28   ar
    28    23     1    1
    29    28    24   ar
    30    22     3   ar
    31    11     4   ar
    32    21    12   ar
    33     9     5   ar
    34    18    13   ar
    35     1    29    1
    36     1    30    1
    37     2    31    1
    38     6    32    1
    39     6    33    1
    40     7    34    1
    41     8    35    1
    42    10    36    1
    43    14    37    1
    44    15    38    1
    45    16    39    1
    46    17    40    1
    47    20    41    1
    48    23    42    1
    49    25    43    1
    50    26    44    1
    51    27    45    1
