@<TRIPOS>MOLECULE
*****
 47 53 0 0 0
SMALL
GASTEIGER

@<TRIPOS>ATOM
      1 C          -1.3924    0.2551   -3.0605 C.3     1  UNL1       -0.0148
      2 C          -2.4494   -0.0137   -2.0287 C.2     1  UNL1       -0.0719
      3 C          -1.8695   -0.2404   -0.8395 C.ar    1  UNL1       -0.0130
      4 C          -2.4662   -0.5611    0.4510 C.ar    1  UNL1       -0.0036
      5 C          -1.6036   -0.7625    1.4769 C.ar    1  UNL1       -0.0523
      6 C          -0.1461   -0.6755    1.3271 C.ar    1  UNL1       -0.0523
      7 C           0.4610   -0.3696    0.1542 C.ar    1  UNL1       -0.0033
      8 C           1.8863   -0.3069    0.1401 C.ar    1  UNL1        0.0279
      9 S           2.7073    1.2028   -0.0801 S.2     1  UNL1       -0.0868
     10 C           4.2984    0.5066    0.0272 C.ar    1  UNL1        0.0320
     11 C           5.4811    1.3286   -0.0920 C.ar    1  UNL1        0.0456
     12 C           5.5703    2.7000   -0.2847 C.ar    1  UNL1        0.0430
     13 N           6.8446    3.2344   -0.3648 N.ar    1  UNL1       -0.2551
     14 C           7.7203    2.2663   -0.2320 C.ar    1  UNL1        0.0653
     15 S           7.0819    0.6956   -0.0090 S.2     1  UNL1       -0.0749
     16 C           4.1790   -0.8489    0.2279 C.ar    1  UNL1       -0.0206
     17 C           5.0843   -2.0269    0.4029 C.3     1  UNL1       -0.0075
     18 C           4.0648   -3.1565    0.5631 C.2     1  UNL1       -0.0791
     19 C           2.7998   -2.6880    0.4903 C.2     1  UNL1       -0.0568
     20 C           2.8306   -1.2836    0.2885 C.ar    1  UNL1       -0.0064
     21 C          -0.4172   -0.1450   -0.9873 C.ar    1  UNL1       -0.0130
     22 C          -0.1235    0.1381   -2.2662 C.2     1  UNL1       -0.0719
     23 C          -3.8667   -0.6321    0.7176 C.ar    1  UNL1        0.0239
     24 S          -4.6325   -2.1435    1.1275 S.2     1  UNL1       -0.0958
     25 C          -6.2013   -1.4330    1.2612 C.ar    1  UNL1       -0.0163
     26 C          -6.1175   -0.1026    0.9927 C.ar    1  UNL1       -0.0142
     27 C          -7.0238    0.9844    0.9399 C.2     1  UNL1       -0.0574
     28 C          -6.3482    2.1095    0.6112 C.2     1  UNL1       -0.0791
     29 C          -4.8549    1.8253    0.4103 C.3     1  UNL1       -0.0075
     30 C          -4.8183    0.3587    0.6830 C.ar    1  UNL1       -0.0217
     31 H          -1.4254   -0.4901   -3.8607 H       1  UNL1        0.0350
     32 H          -1.5012    1.2577   -3.4844 H       1  UNL1        0.0350
     33 H          -3.5090   -0.0317   -2.2338 H       1  UNL1        0.0581
     34 H          -1.9631   -0.9865    2.4786 H       1  UNL1        0.0624
     35 H           0.4330   -0.8578    2.2295 H       1  UNL1        0.0624
     36 H           4.7280    3.3758   -0.3759 H       1  UNL1        0.0841
     37 H           8.7871    2.4459   -0.2612 H       1  UNL1        0.0907
     38 H           5.7072   -2.1986   -0.4793 H       1  UNL1        0.0356
     39 H           5.7004   -1.9391    1.3021 H       1  UNL1        0.0356
     40 H           4.3385   -4.1907    0.7101 H       1  UNL1        0.0575
     41 H           1.8982   -3.2801    0.5668 H       1  UNL1        0.0621
     42 H           0.8652    0.2579   -2.6820 H       1  UNL1        0.0581
     43 H          -7.0622   -2.0319    1.5213 H       1  UNL1        0.0699
     44 H          -8.0847    0.9158    1.1343 H       1  UNL1        0.0621
     45 H          -6.7865    3.0900    0.5002 H       1  UNL1        0.0575
     46 H          -4.5516    2.0596   -0.6136 H       1  UNL1        0.0356
     47 H          -4.2523    2.3883    1.1284 H       1  UNL1        0.0356
@<TRIPOS>BOND
     1     1     2    1
     2     2     3    2
     3     3     4   ar
     4     4     5   ar
     5     5     6   ar
     6     6     7   ar
     7     7     8    1
     8     8     9   ar
     9     9    10   ar
    10    10    11    1
    11    11    12   ar
    12    12    13   ar
    13    13    14   ar
    14    14    15   ar
    15    10    16   ar
    16    16    17    1
    17    17    18    1
    18    18    19    2
    19    19    20    1
    20     7    21   ar
    21    21    22    2
    22     4    23    1
    23    23    24   ar
    24    24    25   ar
    25    25    26   ar
    26    26    27    1
    27    27    28    2
    28    28    29    1
    29    29    30    1
    30    22     1    1
    31    30    23   ar
    32    21     3   ar
    33    30    26   ar
    34    20     8   ar
    35    15    11   ar
    36    20    16   ar
    37     1    31    1
    38     1    32    1
    39     2    33    1
    40     5    34    1
    41     6    35    1
    42    12    36    1
    43    14    37    1
    44    17    38    1
    45    17    39    1
    46    18    40    1
    47    19    41    1
    48    22    42    1
    49    25    43    1
    50    27    44    1
    51    28    45    1
    52    29    46    1
    53    29    47    1
