@<TRIPOS>MOLECULE
*****
 41 46 0 0 0
SMALL
GASTEIGER

@<TRIPOS>ATOM
      1 C          -1.7463   -3.1000   -0.2687 C.3     1  UNL1       -0.0148
      2 C          -2.8785   -2.1212   -0.1416 C.2     1  UNL1       -0.0719
      3 C          -2.3887   -0.8779   -0.0069 C.ar    1  UNL1       -0.0121
      4 C          -3.0775    0.3996    0.1578 C.ar    1  UNL1        0.0057
      5 C          -2.2839    1.4857    0.3254 C.ar    1  UNL1       -0.0515
      6 C          -0.8177    1.4213    0.3261 C.ar    1  UNL1       -0.0523
      7 C          -0.1287    0.2667    0.1581 C.ar    1  UNL1       -0.0028
      8 C           1.2901    0.3235    0.1796 C.ar    1  UNL1        0.0348
      9 S           2.2438    0.9182   -1.1219 S.2     1  UNL1       -0.0844
     10 C           3.7463    0.6161   -0.3165 C.ar    1  UNL1        0.0531
     11 C           5.0400    0.9058   -0.8885 C.ar    1  UNL1        0.1154
     12 N           6.1608    0.6493   -0.2393 N.ar    1  UNL1       -0.2468
     13 C           7.2526    1.0175   -0.9996 C.ar    1  UNL1        0.0355
     14 C           6.9621    1.5559   -2.2319 C.ar    1  UNL1       -0.0042
     15 S           5.2659    1.6050   -2.4506 S.2     1  UNL1       -0.0751
     16 C           3.4435    0.0782    0.8958 C.ar    1  UNL1        0.0066
     17 C           4.2216   -0.3766    1.9976 C.ar    1  UNL1       -0.0458
     18 C           3.4428   -0.8599    3.0537 C.ar    1  UNL1       -0.0231
     19 S           1.7042   -0.8121    2.8221 S.2     1  UNL1       -0.0955
     20 C           2.0921   -0.0990    1.2043 C.ar    1  UNL1        0.0348
     21 C          -0.9263   -0.9406   -0.0134 C.ar    1  UNL1       -0.0129
     22 C          -0.5380   -2.2151   -0.1762 C.2     1  UNL1       -0.0719
     23 C          -4.4849    0.6116    0.1408 C.ar    1  UNL1        0.0470
     24 C          -5.3658    1.2987    0.9555 C.ar    1  UNL1       -0.0364
     25 C          -6.6635    1.1605    0.4052 C.ar    1  UNL1       -0.0438
     26 C          -6.5442    0.4030   -0.7374 C.ar    1  UNL1        0.0022
     27 N          -5.2210    0.0795   -0.8926 N.ar    1  UNL1       -0.3606
     28 H          -1.7633   -3.8290    0.5468 H       1  UNL1        0.0350
     29 H          -1.7818   -3.6203   -1.2302 H       1  UNL1        0.0350
     30 H          -3.9199   -2.4032   -0.1390 H       1  UNL1        0.0581
     31 H          -2.7095    2.4789    0.4474 H       1  UNL1        0.0624
     32 H          -0.3050    2.3692    0.4717 H       1  UNL1        0.0624
     33 H           8.2494    0.8693   -0.6021 H       1  UNL1        0.0835
     34 H           7.6442    1.9117   -2.9903 H       1  UNL1        0.0709
     35 H           5.3048   -0.3598    2.0376 H       1  UNL1        0.0629
     36 H           3.8044   -1.2562    3.9928 H       1  UNL1        0.0694
     37 H           0.4798   -2.5724   -0.2146 H       1  UNL1        0.0581
     38 H          -5.1016    1.8356    1.8575 H       1  UNL1        0.0639
     39 H          -7.5835    1.5719    0.7997 H       1  UNL1        0.0633
     40 H          -7.2826    0.0695   -1.4540 H       1  UNL1        0.0807
     41 H          -4.8362   -0.4591   -1.6577 H       1  UNL1        0.1653
@<TRIPOS>BOND
     1     1     2    1
     2     2     3    2
     3     3     4   ar
     4     4     5   ar
     5     5     6   ar
     6     6     7   ar
     7     7     8    1
     8     8     9   ar
     9     9    10   ar
    10    10    11    1
    11    11    12   ar
    12    12    13   ar
    13    13    14   ar
    14    14    15   ar
    15    10    16   ar
    16    16    17   ar
    17    17    18   ar
    18    18    19   ar
    19    19    20   ar
    20     7    21   ar
    21    21    22    2
    22     4    23    1
    23    23    24   ar
    24    24    25   ar
    25    25    26   ar
    26    26    27   ar
    27    22     1    1
    28    27    23   ar
    29    21     3   ar
    30    20     8   ar
    31    15    11   ar
    32    20    16   ar
    33     1    28    1
    34     1    29    1
    35     2    30    1
    36     5    31    1
    37     6    32    1
    38    13    33    1
    39    14    34    1
    40    17    35    1
    41    18    36    1
    42    22    37    1
    43    24    38    1
    44    25    39    1
    45    26    40    1
    46    27    41    1
