@<TRIPOS>MOLECULE
*****
 50 56 0 0 0
SMALL
GASTEIGER

@<TRIPOS>ATOM
      1 C          -2.7244    1.5724   -2.8343 C.3     1  UNL1       -0.0148
      2 C          -1.4482    1.4869   -2.0506 C.2     1  UNL1       -0.0719
      3 C          -1.7005    0.9991   -0.8253 C.ar    1  UNL1       -0.0115
      4 C          -0.7879    0.7184    0.2802 C.ar    1  UNL1        0.0146
      5 C          -1.3613    0.2177    1.4040 C.ar    1  UNL1       -0.0509
      6 C          -2.7986   -0.0566    1.5236 C.ar    1  UNL1       -0.0523
      7 C          -3.6879    0.1864    0.5300 C.ar    1  UNL1       -0.0032
      8 C          -5.0592   -0.1131    0.7826 C.ar    1  UNL1        0.0291
      9 S          -6.2916    1.1343    0.7502 S.2     1  UNL1       -0.0939
     10 C          -7.5823    0.0444    1.1509 C.ar    1  UNL1        0.0002
     11 C          -7.0525   -1.1851    1.2970 C.ar    1  UNL1        0.0542
     12 N          -7.7178   -2.3328    1.6150 N.ar    1  UNL1       -0.3602
     13 C          -6.6739   -3.2566    1.6232 C.ar    1  UNL1        0.0028
     14 C          -5.4382   -2.6476    1.3147 C.ar    1  UNL1       -0.0356
     15 C          -5.6937   -1.2677    1.1000 C.ar    1  UNL1        0.0144
     16 C          -3.1350    0.7309   -0.7043 C.ar    1  UNL1       -0.0129
     17 C          -3.7392    1.0480   -1.8606 C.2     1  UNL1       -0.0719
     18 C           0.6270    0.9744    0.2539 C.ar    1  UNL1        0.1093
     19 N           1.2061    2.0684   -0.2140 N.ar    1  UNL1       -0.2467
     20 C           2.5801    1.9782   -0.1175 C.ar    1  UNL1        0.0432
     21 C           3.0658    0.8004    0.4054 C.ar    1  UNL1        0.0400
     22 S           1.7601   -0.2313    0.7984 S.2     1  UNL1       -0.0672
     23 C           4.4468    0.3775    0.6317 C.ar    1  UNL1       -0.0021
     24 C           4.9610    0.4820    1.9350 C.ar    1  UNL1       -0.0529
     25 C           6.2740    0.1155    2.2099 C.ar    1  UNL1       -0.0606
     26 C           7.0892   -0.3568    1.1846 C.ar    1  UNL1       -0.0540
     27 C           6.6066   -0.4720   -0.1281 C.ar    1  UNL1       -0.0173
     28 C           7.4464   -0.9511   -1.1474 C.ar    1  UNL1       -0.0540
     29 C           6.9873   -1.0769   -2.4576 C.ar    1  UNL1       -0.0612
     30 C           5.6801   -0.7268   -2.7666 C.ar    1  UNL1       -0.0611
     31 C           4.8323   -0.2485   -1.7650 C.ar    1  UNL1       -0.0534
     32 C           5.2692   -0.1051   -0.4253 C.ar    1  UNL1       -0.0096
     33 H          -2.9460    2.6057   -3.1166 H       1  UNL1        0.0350
     34 H          -2.6786    0.9463   -3.7302 H       1  UNL1        0.0350
     35 H          -0.4805    1.7803   -2.4298 H       1  UNL1        0.0581
     36 H          -0.7788    0.0063    2.2973 H       1  UNL1        0.0625
     37 H          -3.1232   -0.4582    2.4812 H       1  UNL1        0.0624
     38 H          -8.6075    0.3712    1.2504 H       1  UNL1        0.0714
     39 H          -8.7076   -2.4529    1.7914 H       1  UNL1        0.1653
     40 H          -6.8935   -4.2926    1.8481 H       1  UNL1        0.0807
     41 H          -4.4858   -3.1577    1.2543 H       1  UNL1        0.0639
     42 H          -4.7911    0.9490   -2.0798 H       1  UNL1        0.0581
     43 H           3.1887    2.8093   -0.4535 H       1  UNL1        0.0841
     44 H           4.3355    0.8551    2.7436 H       1  UNL1        0.0624
     45 H           6.6634    0.1990    3.2211 H       1  UNL1        0.0618
     46 H           8.1141   -0.6376    1.4200 H       1  UNL1        0.0624
     47 H           8.4737   -1.2336   -0.9262 H       1  UNL1        0.0624
     48 H           7.6504   -1.4503   -3.2334 H       1  UNL1        0.0618
     49 H           5.3141   -0.8261   -3.7852 H       1  UNL1        0.0618
     50 H           3.8128    0.0086   -2.0459 H       1  UNL1        0.0624
@<TRIPOS>BOND
     1     1     2    1
     2     2     3    2
     3     3     4   ar
     4     4     5   ar
     5     5     6   ar
     6     6     7   ar
     7     7     8    1
     8     8     9   ar
     9     9    10   ar
    10    10    11   ar
    11    11    12   ar
    12    12    13   ar
    13    13    14   ar
    14    14    15   ar
    15     7    16   ar
    16    16    17    2
    17     4    18    1
    18    18    19   ar
    19    19    20   ar
    20    20    21   ar
    21    21    22   ar
    22    21    23    1
    23    23    24   ar
    24    24    25   ar
    25    25    26   ar
    26    26    27   ar
    27    27    28   ar
    28    28    29   ar
    29    29    30   ar
    30    30    31   ar
    31    31    32   ar
    32    17     1    1
    33    22    18   ar
    34    32    23   ar
    35    16     3   ar
    36    32    27   ar
    37    15     8   ar
    38    15    11   ar
    39     1    33    1
    40     1    34    1
    41     2    35    1
    42     5    36    1
    43     6    37    1
    44    10    38    1
    45    12    39    1
    46    13    40    1
    47    14    41    1
    48    17    42    1
    49    20    43    1
    50    24    44    1
    51    25    45    1
    52    26    46    1
    53    28    47    1
    54    29    48    1
    55    30    49    1
    56    31    50    1
