@<TRIPOS>MOLECULE
*****
 44 49 0 0 0
SMALL
GASTEIGER

@<TRIPOS>ATOM
      1 C          -1.9392    1.0443   -2.8800 C.3     1  UNL1       -0.0148
      2 C          -0.6595    0.9286   -2.1040 C.2     1  UNL1       -0.0719
      3 C          -0.9124    0.4014   -0.8955 C.ar    1  UNL1       -0.0130
      4 C          -0.0029    0.0838    0.1987 C.ar    1  UNL1       -0.0038
      5 C          -0.5668   -0.4658    1.3021 C.ar    1  UNL1       -0.0524
      6 C          -2.0035   -0.7447    1.4158 C.ar    1  UNL1       -0.0522
      7 C          -2.8967   -0.4672    0.4334 C.ar    1  UNL1       -0.0003
      8 C          -4.2656   -0.7688    0.6641 C.ar    1  UNL1        0.0627
      9 S          -4.8985   -2.3501    1.0201 S.2     1  UNL1       -0.0923
     10 C          -6.5461   -1.7934    1.1106 C.ar    1  UNL1       -0.0129
     11 C          -6.5424   -0.4657    0.8703 C.ar    1  UNL1        0.0278
     12 C          -7.4307    0.6166    0.7789 C.ar    1  UNL1       -0.0156
     13 C          -6.6216    1.7227    0.4885 C.ar    1  UNL1        0.0932
     14 O          -5.2741    1.4300    0.3856 O.2     1  UNL1       -0.4618
     15 C          -5.3085    0.0886    0.6273 C.ar    1  UNL1        0.1495
     16 C          -2.3459    0.1288   -0.7800 C.ar    1  UNL1       -0.0129
     17 C          -2.9530    0.4916   -1.9214 C.2     1  UNL1       -0.0719
     18 C           1.4035    0.3477    0.2081 C.ar    1  UNL1        0.0205
     19 C           2.0508    1.5669    0.1195 C.ar    1  UNL1       -0.0463
     20 C           3.4701    1.4443    0.1414 C.ar    1  UNL1       -0.0463
     21 C           3.8888    0.1317    0.2443 C.ar    1  UNL1        0.0199
     22 S           2.5472   -0.9353    0.2938 S.2     1  UNL1       -0.0882
     23 C           5.2617   -0.3910    0.2774 C.ar    1  UNL1       -0.0113
     24 C           5.6510   -1.3777    1.1958 C.ar    1  UNL1       -0.0535
     25 C           6.9653   -1.8527    1.2202 C.ar    1  UNL1       -0.0612
     26 C           7.9078   -1.3454    0.3288 C.ar    1  UNL1       -0.0617
     27 C           7.5386   -0.3624   -0.5862 C.ar    1  UNL1       -0.0612
     28 C           6.2247    0.1131   -0.6101 C.ar    1  UNL1       -0.0535
     29 H          -1.8986    0.4482   -3.7964 H       1  UNL1        0.0350
     30 H          -2.1575    2.0873   -3.1271 H       1  UNL1        0.0350
     31 H           0.3082    1.2197   -2.4826 H       1  UNL1        0.0581
     32 H           0.0308   -0.7154    2.1756 H       1  UNL1        0.0624
     33 H          -2.3190   -1.1810    2.3606 H       1  UNL1        0.0624
     34 H          -7.3591   -2.4715    1.3269 H       1  UNL1        0.0701
     35 H          -8.5039    0.6285    0.9017 H       1  UNL1        0.0655
     36 H          -6.8538    2.7678    0.3302 H       1  UNL1        0.1030
     37 H          -4.0070    0.4079   -2.1374 H       1  UNL1        0.0581
     38 H           1.5227    2.5105    0.0469 H       1  UNL1        0.0629
     39 H           4.1514    2.2851    0.0917 H       1  UNL1        0.0629
     40 H           4.9366   -1.7810    1.9099 H       1  UNL1        0.0624
     41 H           7.2510   -2.6178    1.9374 H       1  UNL1        0.0618
     42 H           8.9293   -1.7162    0.3475 H       1  UNL1        0.0618
     43 H           8.2715    0.0337   -1.2843 H       1  UNL1        0.0618
     44 H           5.9554    0.8740   -1.3392 H       1  UNL1        0.0624
@<TRIPOS>BOND
     1     1     2    1
     2     2     3    2
     3     3     4   ar
     4     4     5   ar
     5     5     6   ar
     6     6     7   ar
     7     7     8    1
     8     8     9   ar
     9     9    10   ar
    10    10    11   ar
    11    11    12   ar
    12    12    13   ar
    13    13    14   ar
    14    14    15   ar
    15     7    16   ar
    16    16    17    2
    17     4    18    1
    18    18    19   ar
    19    19    20   ar
    20    20    21   ar
    21    21    22   ar
    22    21    23    1
    23    23    24   ar
    24    24    25   ar
    25    25    26   ar
    26    26    27   ar
    27    27    28   ar
    28    17     1    1
    29    22    18   ar
    30    28    23   ar
    31    16     3   ar
    32    15     8   ar
    33    15    11   ar
    34     1    29    1
    35     1    30    1
    36     2    31    1
    37     5    32    1
    38     6    33    1
    39    10    34    1
    40    12    35    1
    41    13    36    1
    42    17    37    1
    43    19    38    1
    44    20    39    1
    45    24    40    1
    46    25    41    1
    47    26    42    1
    48    27    43    1
    49    28    44    1
