@<TRIPOS>MOLECULE
*****
 44 50 0 0 0
SMALL
GASTEIGER

@<TRIPOS>ATOM
      1 C          -2.2906   -0.8495    2.0108 C.3     1  UNL1       -0.0148
      2 C          -0.8878   -0.6749    1.5084 C.2     1  UNL1       -0.0718
      3 C          -0.8964   -0.5069    0.1759 C.ar    1  UNL1       -0.0105
      4 C           0.2078   -0.3159   -0.7645 C.ar    1  UNL1        0.0247
      5 C          -0.1474   -0.1937   -2.0686 C.ar    1  UNL1       -0.0499
      6 C          -1.5372   -0.2423   -2.5395 C.ar    1  UNL1       -0.0523
      7 C          -2.5946   -0.4198   -1.7115 C.ar    1  UNL1       -0.0033
      8 C          -3.9069   -0.4141   -2.2725 C.ar    1  UNL1        0.0281
      9 S          -4.4403   -1.6584   -3.3615 S.2     1  UNL1       -0.0949
     10 C          -6.0165   -0.9850   -3.5355 C.ar    1  UNL1       -0.0094
     11 C          -6.1350    0.1471   -2.7838 C.ar    1  UNL1        0.0269
     12 S          -7.5195    1.2748   -2.5531 S.2     1  UNL1       -0.0961
     13 C          -6.4283    2.1534   -1.4886 C.ar    1  UNL1       -0.0231
     14 C          -5.1428    1.6191   -1.3416 C.ar    1  UNL1       -0.0459
     15 C          -4.9558    0.4320   -2.0987 C.ar    1  UNL1        0.0040
     16 C          -2.2823   -0.5598   -0.2956 C.ar    1  UNL1       -0.0129
     17 C          -3.0997   -0.7603    0.7505 C.2     1  UNL1       -0.0719
     18 C           1.5987   -0.2342   -0.4104 C.ar    1  UNL1        0.1363
     19 C           2.7445   -0.4698   -1.1627 C.ar    1  UNL1       -0.0152
     20 C           3.8709   -0.2466   -0.3339 C.ar    1  UNL1       -0.0147
     21 C           3.3955    0.1120    0.9114 C.ar    1  UNL1        0.1428
     22 O           2.0278    0.1209    0.8502 O.2     1  UNL1       -0.4543
     23 C           4.1134    0.4437    2.1105 C.ar    1  UNL1        0.0626
     24 S           3.3298    1.2734    3.4132 S.2     1  UNL1       -0.0919
     25 C           4.7469    1.3142    4.3857 C.ar    1  UNL1       -0.0093
     26 C           5.7811    0.7007    3.7416 C.ar    1  UNL1        0.0270
     27 S           7.4836    0.4268    4.2631 S.2     1  UNL1       -0.0961
     28 C           7.6656   -0.3805    2.7153 C.ar    1  UNL1       -0.0231
     29 C           6.5292   -0.4197    1.8985 C.ar    1  UNL1       -0.0458
     30 C           5.4016    0.2253    2.4835 C.ar    1  UNL1        0.0069
     31 H          -2.5612   -0.0533    2.7104 H       1  UNL1        0.0350
     32 H          -2.4179   -1.8235    2.4922 H       1  UNL1        0.0350
     33 H          -0.0157   -0.6905    2.1445 H       1  UNL1        0.0581
     34 H           0.5887   -0.0269   -2.8497 H       1  UNL1        0.0625
     35 H          -1.6763   -0.1080   -3.6098 H       1  UNL1        0.0624
     36 H          -6.7731   -1.4351   -4.1630 H       1  UNL1        0.0705
     37 H          -6.8146    3.0471   -1.0177 H       1  UNL1        0.0694
     38 H          -4.3889    2.0789   -0.7135 H       1  UNL1        0.0629
     39 H          -4.1743   -0.8542    0.7132 H       1  UNL1        0.0581
     40 H           2.7669   -0.7760   -2.1994 H       1  UNL1        0.0656
     41 H           4.9062   -0.3325   -0.6270 H       1  UNL1        0.0656
     42 H           4.7652    1.7687    5.3667 H       1  UNL1        0.0705
     43 H           8.6372   -0.7994    2.4907 H       1  UNL1        0.0694
     44 H           6.5424   -0.9072    0.9327 H       1  UNL1        0.0629
@<TRIPOS>BOND
     1     1     2    1
     2     2     3    2
     3     3     4   ar
     4     4     5   ar
     5     5     6   ar
     6     6     7   ar
     7     7     8    1
     8     8     9   ar
     9     9    10   ar
    10    10    11   ar
    11    11    12   ar
    12    12    13   ar
    13    13    14   ar
    14    14    15   ar
    15     7    16   ar
    16    16    17    2
    17     4    18    1
    18    18    19   ar
    19    19    20   ar
    20    20    21   ar
    21    21    22   ar
    22    21    23    1
    23    23    24   ar
    24    24    25   ar
    25    25    26   ar
    26    26    27   ar
    27    27    28   ar
    28    28    29   ar
    29    29    30   ar
    30    17     1    1
    31    22    18   ar
    32    30    23   ar
    33    16     3   ar
    34    30    26   ar
    35    15     8   ar
    36    15    11   ar
    37     1    31    1
    38     1    32    1
    39     2    33    1
    40     5    34    1
    41     6    35    1
    42    10    36    1
    43    13    37    1
    44    14    38    1
    45    17    39    1
    46    19    40    1
    47    20    41    1
    48    25    42    1
    49    28    43    1
    50    29    44    1
