@<TRIPOS>MOLECULE
*****
 46 53 0 0 0
SMALL
GASTEIGER

@<TRIPOS>ATOM
      1 C           5.1510    0.7270   -3.2143 C.ar    1  UNL1        0.0932
      2 C           5.6573    0.7813   -1.9336 C.ar    1  UNL1       -0.0155
      3 C           4.5471    0.6640   -1.0501 C.ar    1  UNL1        0.0299
      4 C           3.4526    0.5430   -1.8810 C.ar    1  UNL1        0.1591
      5 O           3.7990    0.5855   -3.1890 O.2     1  UNL1       -0.4608
      6 C           2.0454    0.3688   -1.3012 C.ar    1  UNL1        0.0915
      7 N           0.8854    0.2791   -2.0064 N.ar    1  UNL1       -0.3512
      8 C          -0.1567    0.0484   -1.1375 C.ar    1  UNL1        0.0488
      9 C          -1.5401   -0.1252   -1.3992 C.ar    1  UNL1       -0.0293
     10 C          -2.4539   -0.4391   -0.3662 C.ar    1  UNL1       -0.0047
     11 C          -3.8738   -0.6556   -0.5947 C.ar    1  UNL1        0.0110
     12 C          -4.5123   -1.9022   -0.3765 C.ar    1  UNL1       -0.0518
     13 C          -5.8897   -2.1364   -0.6014 C.ar    1  UNL1       -0.0590
     14 C          -6.7646   -1.1460   -1.0729 C.ar    1  UNL1       -0.0335
     15 C          -6.1928    0.1237   -1.3238 C.ar    1  UNL1        0.1005
     16 N          -6.8566    1.1967   -1.7813 N.ar    1  UNL1       -0.1908
     17 S          -5.7423    2.4203   -1.9013 S.2     1  UNL1        0.1165
     18 N          -4.3697    1.6455   -1.3906 N.ar    1  UNL1       -0.1902
     19 C          -4.7205    0.3822   -1.0866 C.ar    1  UNL1        0.1076
     20 C          -1.8127   -0.5857    0.8709 C.ar    1  UNL1        0.0079
     21 C          -2.4177   -0.9458    2.0579 C.ar    1  UNL1        0.0100
     22 N          -1.4348   -1.0619    3.0198 N.ar    1  UNL1       -0.3659
     23 C          -0.2001   -0.7786    2.4744 C.ar    1  UNL1        0.0101
     24 C          -0.4420   -0.4183    1.1814 C.ar    1  UNL1        0.0097
     25 C           0.4396   -0.0201    0.1221 C.ar    1  UNL1        0.0173
     26 C           1.8205    0.2945    0.0653 C.ar    1  UNL1        0.0194
     27 C           2.9649    0.5443    0.9018 C.ar    1  UNL1       -0.0073
     28 C           2.8248    0.7337    2.2888 C.ar    1  UNL1       -0.0534
     29 C           3.9320    0.9425    3.1179 C.ar    1  UNL1       -0.0611
     30 C           5.2145    0.9941    2.5824 C.ar    1  UNL1       -0.0611
     31 C           5.4006    0.8780    1.2063 C.ar    1  UNL1       -0.0533
     32 C           4.2995    0.6803    0.3500 C.ar    1  UNL1       -0.0064
     33 H           5.5962    0.7774   -4.1982 H       1  UNL1        0.1030
     34 H           6.6985    0.9020   -1.6725 H       1  UNL1        0.0655
     35 H           0.8102    0.3442   -3.0119 H       1  UNL1        0.1660
     36 H          -1.9050   -0.0276   -2.4203 H       1  UNL1        0.0644
     37 H          -3.9070   -2.7375   -0.0180 H       1  UNL1        0.0624
     38 H          -6.2867   -3.1321   -0.4019 H       1  UNL1        0.0618
     39 H          -7.8174   -1.3362   -1.2423 H       1  UNL1        0.0640
     40 H          -3.4475   -1.1534    2.3142 H       1  UNL1        0.0813
     41 H          -1.5930   -1.3475    3.9773 H       1  UNL1        0.1648
     42 H           0.6905   -0.9005    3.0699 H       1  UNL1        0.0813
     43 H           1.8430    0.7895    2.7405 H       1  UNL1        0.0624
     44 H           3.7852    1.0834    4.1860 H       1  UNL1        0.0618
     45 H           6.0690    1.1576    3.2339 H       1  UNL1        0.0618
     46 H           6.4099    0.9631    0.8119 H       1  UNL1        0.0624
@<TRIPOS>BOND
     1     1     2   ar
     2     2     3   ar
     3     3     4   ar
     4     4     5   ar
     5     4     6   ar
     6     6     7   ar
     7     7     8   ar
     8     8     9   ar
     9     9    10   ar
    10    10    11    1
    11    11    12   ar
    12    12    13   ar
    13    13    14   ar
    14    14    15   ar
    15    15    16   ar
    16    16    17   ar
    17    17    18   ar
    18    18    19   ar
    19    10    20   ar
    20    20    21   ar
    21    21    22   ar
    22    22    23   ar
    23    23    24   ar
    24    24    25   ar
    25    25    26   ar
    26    26    27   ar
    27    27    28   ar
    28    28    29   ar
    29    29    30   ar
    30    30    31   ar
    31    31    32   ar
    32     5     1   ar
    33    26     6   ar
    34    32    27   ar
    35    32     3   ar
    36    25     8   ar
    37    19    11   ar
    38    24    20   ar
    39    19    15   ar
    40     1    33    1
    41     2    34    1
    42     7    35    1
    43     9    36    1
    44    12    37    1
    45    13    38    1
    46    14    39    1
    47    21    40    1
    48    22    41    1
    49    23    42    1
    50    28    43    1
    51    29    44    1
    52    30    45    1
    53    31    46    1
