@<TRIPOS>MOLECULE
*****
 38 44 0 0 0
SMALL
GASTEIGER

@<TRIPOS>ATOM
      1 C          -5.1037    1.1363   -2.9702 C.ar    1  UNL1        0.0932
      2 C          -5.3847    0.6936   -1.6971 C.ar    1  UNL1       -0.0155
      3 C          -4.1323    0.4495   -1.0640 C.ar    1  UNL1        0.0290
      4 C          -3.1845    0.7682   -2.0169 C.ar    1  UNL1        0.1497
      5 O          -3.7620    1.1843   -3.1724 O.2     1  UNL1       -0.4618
      6 C          -1.6672    0.6389   -1.7235 C.ar    1  UNL1        0.0653
      7 S          -0.4659    1.0176   -2.8597 S.2     1  UNL1       -0.0829
      8 C           0.7331    0.5870   -1.6933 C.ar    1  UNL1        0.0387
      9 C           2.1493    0.5256   -1.5883 C.ar    1  UNL1       -0.0219
     10 C           2.4437    0.0715   -0.3105 C.ar    1  UNL1        0.0516
     11 N           1.2366   -0.1336    0.3327 N.ar    1  UNL1       -0.3531
     12 C           0.1950    0.1801   -0.5092 C.ar    1  UNL1        0.0626
     13 C          -1.2420    0.1950   -0.4813 C.ar    1  UNL1        0.0244
     14 C          -2.2550   -0.1285    0.4881 C.ar    1  UNL1       -0.0069
     15 C          -1.8898   -0.5859    1.7712 C.ar    1  UNL1       -0.0533
     16 C          -2.8564   -0.9063    2.7299 C.ar    1  UNL1       -0.0611
     17 C          -4.2107   -0.7800    2.4369 C.ar    1  UNL1       -0.0611
     18 C          -4.6164   -0.3315    1.1810 C.ar    1  UNL1       -0.0533
     19 C          -3.6638   -0.0020    0.1972 C.ar    1  UNL1       -0.0064
     20 C           3.7387   -0.1794    0.3400 C.ar    1  UNL1        0.0446
     21 C           3.8910   -0.6465    1.6567 C.ar    1  UNL1        0.0389
     22 N           5.0507   -0.9094    2.3476 N.ar    1  UNL1       -0.2603
     23 C           6.2629   -0.7212    1.7570 C.ar    1  UNL1        0.0557
     24 C           6.2884   -0.2535    0.4298 C.ar    1  UNL1        0.1185
     25 N           7.3887   -0.0138   -0.3017 N.ar    1  UNL1       -0.1892
     26 S           6.8598    0.5165   -1.7799 S.2     1  UNL1        0.1165
     27 N           5.2210    0.4649   -1.5563 N.ar    1  UNL1       -0.1900
     28 C           4.9933    0.0266   -0.3033 C.ar    1  UNL1        0.1119
     29 H          -5.7127    1.4419   -3.8097 H       1  UNL1        0.1030
     30 H          -6.3727    0.5639   -1.2798 H       1  UNL1        0.0655
     31 H           2.8486    0.7885   -2.3709 H       1  UNL1        0.0650
     32 H           1.0927   -0.4625    1.2766 H       1  UNL1        0.1659
     33 H          -0.8516   -0.7035    2.0550 H       1  UNL1        0.0624
     34 H          -2.5484   -1.2571    3.7123 H       1  UNL1        0.0618
     35 H          -4.9548   -1.0317    3.1888 H       1  UNL1        0.0618
     36 H          -5.6817   -0.2433    0.9823 H       1  UNL1        0.0624
     37 H           3.0130   -0.8477    2.2683 H       1  UNL1        0.0837
     38 H           7.1499   -0.9403    2.3365 H       1  UNL1        0.0852
@<TRIPOS>BOND
     1     1     2   ar
     2     2     3   ar
     3     3     4   ar
     4     4     5   ar
     5     4     6   ar
     6     6     7   ar
     7     7     8   ar
     8     8     9   ar
     9     9    10   ar
    10    10    11   ar
    11    11    12   ar
    12    12    13   ar
    13    13    14   ar
    14    14    15   ar
    15    15    16   ar
    16    16    17   ar
    17    17    18   ar
    18    18    19   ar
    19    10    20    1
    20    20    21   ar
    21    21    22   ar
    22    22    23   ar
    23    23    24   ar
    24    24    25   ar
    25    25    26   ar
    26    26    27   ar
    27    27    28   ar
    28     5     1   ar
    29    13     6   ar
    30    19    14   ar
    31    28    20   ar
    32    19     3   ar
    33    28    24   ar
    34    12     8   ar
    35     1    29    1
    36     2    30    1
    37     9    31    1
    38    11    32    1
    39    15    33    1
    40    16    34    1
    41    17    35    1
    42    18    36    1
    43    21    37    1
    44    23    38    1
