@<TRIPOS>MOLECULE
*****
 40 45 0 0 0
SMALL
GASTEIGER

@<TRIPOS>ATOM
      1 C          -2.1292    2.4017   -2.2794 C.ar    1  UNL1        0.0028
      2 C          -3.0437    1.5370   -1.6442 C.ar    1  UNL1       -0.0355
      3 C          -2.2991    0.7152   -0.7563 C.ar    1  UNL1        0.0156
      4 C          -2.4543   -0.3057    0.1182 C.ar    1  UNL1        0.0364
      5 S          -0.8686   -0.7112    0.7107 S.2     1  UNL1       -0.0835
      6 C          -0.0697    0.5247   -0.2101 C.ar    1  UNL1        0.0599
      7 C           1.3396    0.7600   -0.1525 C.ar    1  UNL1        0.0556
      8 C           2.0695    1.9239   -0.2822 C.ar    1  UNL1       -0.0353
      9 C           3.4403    1.5910   -0.1477 C.ar    1  UNL1       -0.0358
     10 C           3.5351    0.2295    0.0854 C.ar    1  UNL1        0.0484
     11 N           2.2428   -0.2517    0.0817 N.ar    1  UNL1       -0.3537
     12 C           4.7073   -0.6213    0.2927 C.ar    1  UNL1        0.0164
     13 C           5.9241   -0.3361   -0.3327 C.ar    1  UNL1       -0.0498
     14 C           7.0274   -1.1633   -0.1261 C.ar    1  UNL1       -0.0430
     15 C           6.8815   -2.2589    0.7076 C.ar    1  UNL1        0.0276
     16 N           5.7297   -2.5712    1.3366 N.ar    1  UNL1       -0.2626
     17 C           4.6771   -1.7444    1.1187 C.ar    1  UNL1        0.0366
     18 C          -1.0081    1.1647   -0.9438 C.ar    1  UNL1        0.0635
     19 N          -0.8249    2.1723   -1.8497 N.ar    1  UNL1       -0.3597
     20 C          -3.6449   -0.9786    0.5441 C.ar    1  UNL1        0.0374
     21 S          -3.7264   -2.7073    0.7880 S.2     1  UNL1       -0.0918
     22 C          -5.4000   -2.6867    1.2362 C.ar    1  UNL1        0.0192
     23 C          -5.8156   -1.4092    1.1876 C.ar    1  UNL1        0.1424
     24 O          -7.0660   -0.9572    1.4756 O.2     1  UNL1       -0.4624
     25 C          -6.8763    0.3966    1.2672 C.ar    1  UNL1        0.0932
     26 C          -5.5770    0.7397    0.8718 C.ar    1  UNL1       -0.0150
     27 C          -4.8754   -0.4801    0.8142 C.ar    1  UNL1        0.0354
     28 H          -2.3075    3.1648   -3.0265 H       1  UNL1        0.0807
     29 H          -4.1089    1.5112   -1.8321 H       1  UNL1        0.0639
     30 H           1.6704    2.9173   -0.4375 H       1  UNL1        0.0639
     31 H           4.2723    2.2825   -0.1937 H       1  UNL1        0.0639
     32 H           1.9808   -1.2205    0.2042 H       1  UNL1        0.1659
     33 H           6.0212    0.5214   -0.9930 H       1  UNL1        0.0625
     34 H           7.9767   -0.9576   -0.6076 H       1  UNL1        0.0633
     35 H           7.7117   -2.9332    0.8977 H       1  UNL1        0.0829
     36 H           3.7804   -2.0230    1.6650 H       1  UNL1        0.0836
     37 H           0.0483    2.6002   -2.1317 H       1  UNL1        0.1654
     38 H          -5.9625   -3.5697    1.5014 H       1  UNL1        0.0731
     39 H          -7.7606    0.9947    1.4451 H       1  UNL1        0.1030
     40 H          -5.2172    1.7384    0.6702 H       1  UNL1        0.0655
@<TRIPOS>BOND
     1     1     2   ar
     2     2     3   ar
     3     3     4   ar
     4     4     5   ar
     5     5     6   ar
     6     6     7    1
     7     7     8   ar
     8     8     9   ar
     9     9    10   ar
    10    10    11   ar
    11    10    12    1
    12    12    13   ar
    13    13    14   ar
    14    14    15   ar
    15    15    16   ar
    16    16    17   ar
    17     6    18   ar
    18    18    19   ar
    19     4    20    1
    20    20    21   ar
    21    21    22   ar
    22    22    23   ar
    23    23    24   ar
    24    24    25   ar
    25    25    26   ar
    26    26    27   ar
    27    19     1   ar
    28    27    20   ar
    29    18     3   ar
    30    27    23   ar
    31    11     7   ar
    32    17    12   ar
    33     1    28    1
    34     2    29    1
    35     8    30    1
    36     9    31    1
    37    11    32    1
    38    13    33    1
    39    14    34    1
    40    15    35    1
    41    17    36    1
    42    19    37    1
    43    22    38    1
    44    25    39    1
    45    26    40    1
