@<TRIPOS>MOLECULE
*****
 48 54 0 0 0
SMALL
GASTEIGER

@<TRIPOS>ATOM
      1 C          -2.1951    1.8078    3.2177 C.ar    1  UNL1       -0.0231
      2 C          -3.1134    1.4851    2.2129 C.ar    1  UNL1       -0.0459
      3 C          -2.4860    1.0073    1.0317 C.ar    1  UNL1        0.0046
      4 C          -2.9471    0.5952   -0.1759 C.ar    1  UNL1        0.0288
      5 S          -1.5773    0.2025   -1.1503 S.2     1  UNL1       -0.0865
      6 C          -0.4551    0.5709    0.0977 C.ar    1  UNL1        0.0348
      7 C           0.9674    0.4342   -0.0869 C.ar    1  UNL1       -0.0010
      8 C           1.7547    1.2850   -0.8937 C.ar    1  UNL1       -0.0522
      9 C           3.1746    1.1348   -1.0596 C.ar    1  UNL1       -0.0513
     10 C           3.9672    0.1150   -0.4553 C.ar    1  UNL1        0.0095
     11 C           5.4048   -0.0172   -0.6672 C.ar    1  UNL1        0.0716
     12 C           6.0206   -1.2346   -0.9558 C.ar    1  UNL1       -0.0357
     13 C           7.3972   -1.2704   -1.1692 C.ar    1  UNL1       -0.0583
     14 C           8.1264   -0.0915   -1.0993 C.ar    1  UNL1       -0.0436
     15 C           7.4432    1.0799   -0.8265 C.ar    1  UNL1        0.0283
     16 N           6.1095    1.1432   -0.6197 N.ar    1  UNL1       -0.2550
     17 C           3.1624   -0.7088    0.3503 C.ar    1  UNL1        0.0092
     18 C           3.5555   -1.7589    1.1475 C.ar    1  UNL1        0.0101
     19 N           2.4276   -2.2646    1.7576 N.ar    1  UNL1       -0.3659
     20 C           1.3174   -1.5461    1.3767 C.ar    1  UNL1        0.0100
     21 C           1.7441   -0.5571    0.5229 C.ar    1  UNL1        0.0083
     22 C          -1.1021    1.0096    1.2196 C.ar    1  UNL1        0.0347
     23 S          -0.4980    1.5735    2.8270 S.2     1  UNL1       -0.0955
     24 C          -4.2849    0.4572   -0.7069 C.ar    1  UNL1        0.0000
     25 C          -4.7817    1.1211   -1.8573 C.ar    1  UNL1       -0.0528
     26 C          -6.1271    0.9760   -2.3556 C.ar    1  UNL1       -0.0605
     27 C          -7.1143    0.1542   -1.7621 C.ar    1  UNL1       -0.0510
     28 C          -6.5988   -0.4869   -0.6438 C.ar    1  UNL1        0.0205
     29 C          -7.2524   -1.3669    0.1757 C.ar    1  UNL1        0.0994
     30 O          -6.3995   -1.7935    1.1574 O.2     1  UNL1       -0.4698
     31 C          -5.1933   -1.1779    0.9542 C.ar    1  UNL1        0.1000
     32 C          -5.2713   -0.3517   -0.1381 C.ar    1  UNL1        0.0281
     33 H          -2.4232    2.1902    4.2034 H       1  UNL1        0.0694
     34 H          -4.1825    1.6017    2.3454 H       1  UNL1        0.0629
     35 H           1.2712    2.1103   -1.4169 H       1  UNL1        0.0624
     36 H           3.6826    1.8585   -1.7011 H       1  UNL1        0.0624
     37 H           5.4381   -2.1468   -1.0335 H       1  UNL1        0.0639
     38 H           7.8917   -2.2108   -1.3944 H       1  UNL1        0.0619
     39 H           9.1982   -0.0833   -1.2600 H       1  UNL1        0.0633
     40 H           7.9641    2.0310   -0.7663 H       1  UNL1        0.0830
     41 H           4.5226   -2.1944    1.3575 H       1  UNL1        0.0813
     42 H           2.4186   -3.0422    2.4049 H       1  UNL1        0.1648
     43 H           0.3404   -1.7995    1.7657 H       1  UNL1        0.0813
     44 H          -4.1154    1.7913   -2.4029 H       1  UNL1        0.0624
     45 H          -6.3972    1.5393   -3.2504 H       1  UNL1        0.0618
     46 H          -8.1186    0.0521   -2.1475 H       1  UNL1        0.0625
     47 H          -8.2488   -1.7838    0.2111 H       1  UNL1        0.1035
     48 H          -4.4170   -1.4397    1.6595 H       1  UNL1        0.1036
@<TRIPOS>BOND
     1     1     2   ar
     2     2     3   ar
     3     3     4   ar
     4     4     5   ar
     5     5     6   ar
     6     6     7    1
     7     7     8   ar
     8     8     9   ar
     9     9    10   ar
    10    10    11    1
    11    11    12   ar
    12    12    13   ar
    13    13    14   ar
    14    14    15   ar
    15    15    16   ar
    16    10    17   ar
    17    17    18   ar
    18    18    19   ar
    19    19    20   ar
    20    20    21   ar
    21     6    22   ar
    22    22    23   ar
    23     4    24    1
    24    24    25   ar
    25    25    26   ar
    26    26    27   ar
    27    27    28   ar
    28    28    29   ar
    29    29    30   ar
    30    30    31   ar
    31    31    32   ar
    32    23     1   ar
    33    32    24   ar
    34    22     3   ar
    35    32    28   ar
    36    21     7   ar
    37    16    11   ar
    38    21    17   ar
    39     1    33    1
    40     2    34    1
    41     8    35    1
    42     9    36    1
    43    12    37    1
    44    13    38    1
    45    14    39    1
    46    15    40    1
    47    18    41    1
    48    19    42    1
    49    20    43    1
    50    25    44    1
    51    26    45    1
    52    27    46    1
    53    29    47    1
    54    31    48    1
