@<TRIPOS>MOLECULE
*****
 37 42 0 0 0
SMALL
GASTEIGER

@<TRIPOS>ATOM
      1 C           2.7836   -2.5968   -2.3173 C.ar    1  UNL1       -0.0231
      2 C           3.6795   -1.8337   -1.5605 C.ar    1  UNL1       -0.0458
      3 C           3.0259   -0.9537   -0.6531 C.ar    1  UNL1        0.0051
      4 C           3.4537   -0.0364    0.2538 C.ar    1  UNL1        0.0362
      5 S           2.0488    0.6773    0.9662 S.2     1  UNL1       -0.0859
      6 C           0.9623   -0.2600    0.0257 C.ar    1  UNL1        0.0349
      7 C          -0.4688   -0.1517    0.1544 C.ar    1  UNL1        0.0006
      8 C          -1.3069   -1.1586    0.6944 C.ar    1  UNL1       -0.0522
      9 C          -2.7371   -1.0396    0.8078 C.ar    1  UNL1       -0.0522
     10 C          -3.4733    0.1006    0.3982 C.ar    1  UNL1        0.0009
     11 C          -4.9113    0.2146    0.4984 C.ar    1  UNL1        0.0395
     12 C          -5.8978   -0.5638   -0.0775 C.ar    1  UNL1        0.0425
     13 N          -7.2001   -0.2216    0.2357 N.ar    1  UNL1       -0.2551
     14 C          -7.1876    0.8048    1.0567 C.ar    1  UNL1        0.0652
     15 S          -5.6434    1.4062    1.4955 S.2     1  UNL1       -0.0754
     16 C          -2.6338    1.0771   -0.1468 C.ar    1  UNL1        0.0287
     17 C          -2.9645    2.2892   -0.6972 C.ar    1  UNL1        0.1000
     18 O          -1.8343    2.9240   -1.1328 O.2     1  UNL1       -0.4698
     19 C          -0.7714    2.1061   -0.8670 C.ar    1  UNL1        0.1000
     20 C          -1.2112    0.9571   -0.2612 C.ar    1  UNL1        0.0287
     21 C           1.6444   -1.1052   -0.8036 C.ar    1  UNL1        0.0347
     22 S           1.0768   -2.3208   -2.0148 S.2     1  UNL1       -0.0955
     23 C           4.7894    0.3233    0.6411 C.ar    1  UNL1        0.0460
     24 C           5.8868   -0.5079    0.7847 C.ar    1  UNL1        0.0430
     25 N           7.0730    0.1010    1.1511 N.ar    1  UNL1       -0.2551
     26 C           6.8650    1.3908    1.2904 C.ar    1  UNL1        0.0653
     27 S           5.2699    1.9378    0.9906 S.2     1  UNL1       -0.0749
     28 H           3.0367   -3.3315   -3.0701 H       1  UNL1        0.0694
     29 H           4.7521   -1.9214   -1.6844 H       1  UNL1        0.0629
     30 H          -0.8500   -2.0834    1.0510 H       1  UNL1        0.0624
     31 H          -3.2763   -1.8815    1.2456 H       1  UNL1        0.0624
     32 H          -5.7212   -1.3997   -0.7442 H       1  UNL1        0.0841
     33 H          -8.0971    1.2482    1.4407 H       1  UNL1        0.0907
     34 H          -3.8869    2.8285   -0.8608 H       1  UNL1        0.1036
     35 H           0.1925    2.4873   -1.1742 H       1  UNL1        0.1036
     36 H           5.8801   -1.5817    0.6406 H       1  UNL1        0.0841
     37 H           7.6529    2.0750    1.5777 H       1  UNL1        0.0907
@<TRIPOS>BOND
     1     1     2   ar
     2     2     3   ar
     3     3     4   ar
     4     4     5   ar
     5     5     6   ar
     6     6     7    1
     7     7     8   ar
     8     8     9   ar
     9     9    10   ar
    10    10    11    1
    11    11    12   ar
    12    12    13   ar
    13    13    14   ar
    14    14    15   ar
    15    10    16   ar
    16    16    17   ar
    17    17    18   ar
    18    18    19   ar
    19    19    20   ar
    20     6    21   ar
    21    21    22   ar
    22     4    23    1
    23    23    24   ar
    24    24    25   ar
    25    25    26   ar
    26    26    27   ar
    27    22     1   ar
    28    27    23   ar
    29    21     3   ar
    30    20     7   ar
    31    15    11   ar
    32    20    16   ar
    33     1    28    1
    34     2    29    1
    35     8    30    1
    36     9    31    1
    37    12    32    1
    38    14    33    1
    39    17    34    1
    40    19    35    1
    41    24    36    1
    42    26    37    1
