@<TRIPOS>MOLECULE
*****
 38 43 0 0 0
SMALL
GASTEIGER

@<TRIPOS>ATOM
      1 SI         -1.9388   -3.7660    0.2193 Si      1  UNL1        0.0000
      2 C          -2.8175   -2.1231    0.2795 C.2     1  UNL1        0.0000
      3 C          -1.9447   -1.1020    0.1860 C.ar    1  UNL1        0.0000
      4 C          -2.2418    0.2889    0.1957 C.ar    1  UNL1        0.0000
      5 C          -3.3741    1.0746    0.2901 C.ar    1  UNL1        0.0000
      6 SI         -5.2137    1.0157    0.4604 Si      1  UNL1        0.0000
      7 C          -5.2244    2.9396    0.4367 C.2     1  UNL1        0.0000
      8 C          -3.9771    3.4441    0.3153 C.2     1  UNL1        0.0000
      9 C          -3.0015    2.4116    0.2386 C.ar    1  UNL1        0.0000
     10 O          -1.6399    2.4841    0.1121 O.2     1  UNL1        0.0000
     11 C          -1.1992    1.1925    0.0880 C.ar    1  UNL1        0.0000
     12 C           0.2187    0.8924   -0.0390 C.ar    1  UNL1        0.0000
     13 C           1.1925    1.8859   -0.1414 C.ar    1  UNL1        0.0000
     14 C           2.5383    1.5306   -0.2611 C.ar    1  UNL1        0.0000
     15 C           2.9355    0.1841   -0.2806 C.ar    1  UNL1        0.0000
     16 C           1.9458   -0.8106   -0.1767 C.ar    1  UNL1        0.0000
     17 C           0.5865   -0.4799   -0.0554 C.ar    1  UNL1        0.0000
     18 C          -0.5043   -1.5059    0.0582 C.ar    1  UNL1        0.0000
     19 C          -0.3180   -2.8440    0.0580 C.2     1  UNL1        0.0000
     20 C           4.3458   -0.1844   -0.4061 C.ar    1  UNL1        0.0000
     21 C           5.0355   -1.3822   -0.4544 C.ar    1  UNL1        0.0000
     22 C           6.4093   -1.0619   -0.5854 C.ar    1  UNL1        0.0000
     23 C           6.4788    0.3094   -0.6093 C.ar    1  UNL1        0.0000
     24 O           5.2387    0.8487   -0.5017 O.2     1  UNL1        0.0000
     25 H          -2.2689   -4.5418   -0.9998 H       1  UNL1        0.0000
     26 H          -2.0385   -4.5102    1.4973 H       1  UNL1        0.0000
     27 H          -3.8883   -2.0701    0.3776 H       1  UNL1        0.0000
     28 H          -5.7058    0.5097    1.7663 H       1  UNL1        0.0000
     29 H          -5.9351    0.4777   -0.7201 H       1  UNL1        0.0000
     30 H          -6.1517    3.4837    0.5152 H       1  UNL1        0.0000
     31 H          -3.7210    4.4937    0.2782 H       1  UNL1        0.0000
     32 H           0.9126    2.9364   -0.1289 H       1  UNL1        0.0000
     33 H           3.2796    2.3238   -0.3395 H       1  UNL1        0.0000
     34 H           2.2430   -1.8541   -0.1908 H       1  UNL1        0.0000
     35 H           0.6054   -3.3927   -0.0202 H       1  UNL1        0.0000
     36 H           4.6042   -2.3714   -0.4019 H       1  UNL1        0.0000
     37 H           7.2438   -1.7452   -0.6536 H       1  UNL1        0.0000
     38 H           7.2905    1.0184   -0.6934 H       1  UNL1        0.0000
@<TRIPOS>BOND
     1     1     2    1
     2     2     3    2
     3     3     4   ar
     4     4     5   ar
     5     5     6    1
     6     6     7    1
     7     7     8    2
     8     8     9    1
     9     9    10   ar
    10    10    11   ar
    11    11    12   ar
    12    12    13   ar
    13    13    14   ar
    14    14    15   ar
    15    15    16   ar
    16    16    17   ar
    17    17    18   ar
    18    18    19    2
    19    15    20    1
    20    20    21   ar
    21    21    22   ar
    22    22    23   ar
    23    23    24   ar
    24    19     1    1
    25    24    20   ar
    26    18     3   ar
    27    11     4   ar
    28    17    12   ar
    29     9     5   ar
    30     1    25    1
    31     1    26    1
    32     2    27    1
    33     6    28    1
    34     6    29    1
    35     7    30    1
    36     8    31    1
    37    13    32    1
    38    14    33    1
    39    16    34    1
    40    19    35    1
    41    21    36    1
    42    22    37    1
    43    23    38    1
