@<TRIPOS>MOLECULE
*****
 44 50 0 0 0
SMALL
GASTEIGER

@<TRIPOS>ATOM
      1 C          -2.6399    1.6841    2.7153 C.ar    1  UNL1        0.0028
      2 C          -3.7031    1.2242    1.9118 C.ar    1  UNL1       -0.0355
      3 C          -3.1300    0.5218    0.8194 C.ar    1  UNL1        0.0150
      4 C          -3.4866   -0.1670   -0.2896 C.ar    1  UNL1        0.0291
      5 S          -2.0095   -0.6921   -1.0500 S.2     1  UNL1       -0.0855
      6 C          -0.9817    0.0335    0.1487 C.ar    1  UNL1        0.0459
      7 C           0.4696   -0.0208    0.0590 C.ar    1  UNL1        0.0189
      8 C           1.1636    0.2269   -1.1464 C.ar    1  UNL1       -0.0507
      9 C           2.5718    0.1722   -1.2654 C.ar    1  UNL1       -0.0497
     10 C           3.4391   -0.1268   -0.1913 C.ar    1  UNL1        0.0307
     11 C           4.8794   -0.1720   -0.3384 C.ar    1  UNL1        0.1011
     12 N           5.4060   -0.9651   -1.3310 N.ar    1  UNL1       -0.2526
     13 C           6.7592   -1.0591   -1.5239 C.ar    1  UNL1        0.0304
     14 C           7.7593   -0.3961   -0.8208 C.ar    1  UNL1       -0.0153
     15 C           7.2657    0.4642    0.1774 C.ar    1  UNL1        0.1034
     16 N           8.0181    1.2357    0.9779 N.ar    1  UNL1       -0.1907
     17 S           6.9648    2.0664    1.9558 S.2     1  UNL1        0.1165
     18 N           5.5101    1.5053    1.3920 N.ar    1  UNL1       -0.1886
     19 C           5.7877    0.6000    0.4348 C.ar    1  UNL1        0.1258
     20 C           2.7998   -0.4181    1.0476 C.ar    1  UNL1        0.1097
     21 N           3.4021   -0.7900    2.1919 N.ar    1  UNL1       -0.1901
     22 S           2.2166   -1.0041    3.3227 S.2     1  UNL1        0.1165
     23 N           0.8728   -0.6379    2.4308 N.ar    1  UNL1       -0.1901
     24 C           1.2852   -0.3542    1.1810 C.ar    1  UNL1        0.1088
     25 C          -1.7777    0.6233    1.0699 C.ar    1  UNL1        0.0621
     26 N          -1.4052    1.3061    2.1946 N.ar    1  UNL1       -0.3597
     27 C          -4.7939   -0.4610   -0.8770 C.ar    1  UNL1       -0.0107
     28 C          -5.1070   -1.7375   -1.3673 C.ar    1  UNL1       -0.0535
     29 C          -6.3639   -2.0030   -1.9181 C.ar    1  UNL1       -0.0612
     30 C          -7.3243   -0.9962   -1.9838 C.ar    1  UNL1       -0.0617
     31 C          -7.0302    0.2757   -1.4982 C.ar    1  UNL1       -0.0612
     32 C          -5.7737    0.5406   -0.9469 C.ar    1  UNL1       -0.0535
     33 H          -2.6672    2.2457    3.6401 H       1  UNL1        0.0807
     34 H          -4.7539    1.3795    2.1169 H       1  UNL1        0.0639
     35 H           0.5954    0.4812   -2.0431 H       1  UNL1        0.0625
     36 H           3.0094    0.3762   -2.2453 H       1  UNL1        0.0625
     37 H           7.0362   -1.7405   -2.3287 H       1  UNL1        0.0830
     38 H           8.8126   -0.5167   -1.0283 H       1  UNL1        0.0655
     39 H          -0.4662    1.4334    2.5544 H       1  UNL1        0.1654
     40 H          -4.3789   -2.5437   -1.3146 H       1  UNL1        0.0624
     41 H          -6.5917   -2.9977   -2.2922 H       1  UNL1        0.0618
     42 H          -8.3016   -1.2033   -2.4119 H       1  UNL1        0.0618
     43 H          -7.7769    1.0638   -1.5487 H       1  UNL1        0.0618
     44 H          -5.5614    1.5428   -0.5812 H       1  UNL1        0.0624
@<TRIPOS>BOND
     1     1     2   ar
     2     2     3   ar
     3     3     4   ar
     4     4     5   ar
     5     5     6   ar
     6     6     7    1
     7     7     8   ar
     8     8     9   ar
     9     9    10   ar
    10    10    11    1
    11    11    12   ar
    12    12    13   ar
    13    13    14   ar
    14    14    15   ar
    15    15    16   ar
    16    16    17   ar
    17    17    18   ar
    18    18    19   ar
    19    10    20   ar
    20    20    21   ar
    21    21    22   ar
    22    22    23   ar
    23    23    24   ar
    24     6    25   ar
    25    25    26   ar
    26     4    27    1
    27    27    28   ar
    28    28    29   ar
    29    29    30   ar
    30    30    31   ar
    31    31    32   ar
    32    26     1   ar
    33    32    27   ar
    34    25     3   ar
    35    24     7   ar
    36    19    11   ar
    37    24    20   ar
    38    19    15   ar
    39     1    33    1
    40     2    34    1
    41     8    35    1
    42     9    36    1
    43    13    37    1
    44    14    38    1
    45    26    39    1
    46    28    40    1
    47    29    41    1
    48    30    42    1
    49    31    43    1
    50    32    44    1
