@<TRIPOS>MOLECULE
*****
 40 45 0 0 0
SMALL
GASTEIGER

@<TRIPOS>ATOM
      1 C           2.2951   -3.2276    1.9788 C.ar    1  UNL1        0.0932
      2 C           3.4055   -2.5341    1.4907 C.ar    1  UNL1       -0.0150
      3 C           2.8814   -1.4250    0.7909 C.ar    1  UNL1        0.0361
      4 C           3.2899   -0.3425    0.0756 C.ar    1  UNL1        0.0380
      5 S           1.8349    0.4880   -0.4112 S.2     1  UNL1       -0.0818
      6 C           0.7532   -0.6296    0.3505 C.ar    1  UNL1        0.0809
      7 C          -0.7014   -0.4913    0.3120 C.ar    1  UNL1        0.0811
      8 C          -1.5812   -1.3776    0.9167 C.ar    1  UNL1       -0.0344
      9 C          -2.9591   -1.1503    0.8179 C.ar    1  UNL1       -0.0491
     10 C          -3.4723   -0.0466    0.1213 C.ar    1  UNL1        0.0185
     11 C          -2.5024    0.7766   -0.4457 C.ar    1  UNL1        0.0374
     12 N          -1.1577    0.5862   -0.3697 N.ar    1  UNL1       -0.2537
     13 C          -4.9296    0.1980    0.0140 C.ar    1  UNL1        0.0724
     14 C          -5.4955    1.2789   -0.6660 C.ar    1  UNL1       -0.0356
     15 C          -6.8837    1.4201   -0.7087 C.ar    1  UNL1       -0.0583
     16 C          -7.6855    0.4840   -0.0745 C.ar    1  UNL1       -0.0436
     17 C          -7.0620   -0.5597    0.5795 C.ar    1  UNL1        0.0283
     18 N          -5.7207   -0.7180    0.6349 N.ar    1  UNL1       -0.2549
     19 C           1.5175   -1.5744    0.9355 C.ar    1  UNL1        0.1516
     20 O           1.0864   -2.6544    1.6500 O.2     1  UNL1       -0.4617
     21 C           4.6137    0.1278   -0.2755 C.ar    1  UNL1        0.0348
     22 S           6.0396   -0.7298    0.2297 S.2     1  UNL1       -0.0944
     23 C           7.1212    0.3661   -0.5178 C.ar    1  UNL1       -0.0094
     24 C           6.4286    1.3614   -1.1379 C.ar    1  UNL1        0.0269
     25 S           7.0339    2.7768   -2.0755 S.2     1  UNL1       -0.0961
     26 C           5.3400    3.1732   -2.2726 C.ar    1  UNL1       -0.0231
     27 C           4.4251    2.2990   -1.6745 C.ar    1  UNL1       -0.0459
     28 C           5.0454    1.2082   -0.9901 C.ar    1  UNL1        0.0045
     29 H           2.2082   -4.1317    2.5673 H       1  UNL1        0.1030
     30 H           4.4351   -2.8231    1.6418 H       1  UNL1        0.0655
     31 H          -1.2376   -2.2457    1.4667 H       1  UNL1        0.0639
     32 H          -3.6357   -1.8558    1.2984 H       1  UNL1        0.0625
     33 H          -2.7617    1.6654   -1.0121 H       1  UNL1        0.0836
     34 H          -4.8901    2.0234   -1.1693 H       1  UNL1        0.0639
     35 H          -7.3316    2.2582   -1.2357 H       1  UNL1        0.0619
     36 H          -8.7663    0.5652   -0.0891 H       1  UNL1        0.0633
     37 H          -7.6385   -1.3232    1.0940 H       1  UNL1        0.0830
     38 H           8.1953    0.2472   -0.4786 H       1  UNL1        0.0705
     39 H           5.1029    4.0629   -2.8403 H       1  UNL1        0.0694
     40 H           3.3599    2.4733   -1.7499 H       1  UNL1        0.0629
@<TRIPOS>BOND
     1     1     2   ar
     2     2     3   ar
     3     3     4   ar
     4     4     5   ar
     5     5     6   ar
     6     6     7    1
     7     7     8   ar
     8     8     9   ar
     9     9    10   ar
    10    10    11   ar
    11    11    12   ar
    12    10    13    1
    13    13    14   ar
    14    14    15   ar
    15    15    16   ar
    16    16    17   ar
    17    17    18   ar
    18     6    19   ar
    19    19    20   ar
    20     4    21    1
    21    21    22   ar
    22    22    23   ar
    23    23    24   ar
    24    24    25   ar
    25    25    26   ar
    26    26    27   ar
    27    27    28   ar
    28    20     1   ar
    29    28    21   ar
    30    19     3   ar
    31    28    24   ar
    32    12     7   ar
    33    18    13   ar
    34     1    29    1
    35     2    30    1
    36     8    31    1
    37     9    32    1
    38    11    33    1
    39    14    34    1
    40    15    35    1
    41    16    36    1
    42    17    37    1
    43    23    38    1
    44    26    39    1
    45    27    40    1
