@<TRIPOS>MOLECULE
*****
 34 38 0 0 0
SMALL
GASTEIGER

@<TRIPOS>ATOM
      1 C           2.3178   -0.2063    3.1597 C.ar    1  UNL1        0.0028
      2 C           3.4005    0.0631    2.2934 C.ar    1  UNL1       -0.0355
      3 C           2.8718    0.2262    0.9793 C.ar    1  UNL1        0.0156
      4 C           3.2432    0.4688   -0.3013 C.ar    1  UNL1        0.0372
      5 S           1.7743    0.4884   -1.2481 S.2     1  UNL1       -0.0834
      6 C           0.7350    0.1478    0.0951 C.ar    1  UNL1        0.0619
      7 C          -0.7193   -0.0036    0.0009 C.ar    1  UNL1        0.0796
      8 C          -1.3993   -0.1469   -1.2088 C.ar    1  UNL1       -0.0345
      9 C          -2.7880   -0.3041   -1.1948 C.ar    1  UNL1       -0.0500
     10 C          -3.4772   -0.3070    0.0165 C.ar    1  UNL1        0.0083
     11 C          -2.7217   -0.1566    1.1756 C.ar    1  UNL1        0.0365
     12 N          -1.3727   -0.0123    1.1952 N.ar    1  UNL1       -0.2538
     13 C          -4.9213   -0.4743    0.0574 C.ar    1  UNL1        0.0402
     14 C          -5.7006   -1.5443   -0.3389 C.ar    1  UNL1        0.0425
     15 N          -7.0659   -1.3822   -0.1900 N.ar    1  UNL1       -0.2551
     16 C          -7.3084   -0.1893    0.3043 C.ar    1  UNL1        0.0652
     17 S          -5.9375    0.7849    0.6310 S.2     1  UNL1       -0.0754
     18 C           1.5197    0.0531    1.1929 C.ar    1  UNL1        0.0635
     19 N           1.1105   -0.2054    2.4736 N.ar    1  UNL1       -0.3597
     20 C           4.5364    0.6715   -0.8992 C.ar    1  UNL1        0.0460
     21 C           4.8406    1.1440   -2.1662 C.ar    1  UNL1        0.0430
     22 N           6.1832    1.2190   -2.4963 N.ar    1  UNL1       -0.2551
     23 C           6.8933    0.8029   -1.4716 C.ar    1  UNL1        0.0653
     24 S           6.0127    0.3147   -0.0876 S.2     1  UNL1       -0.0749
     25 H           2.3174   -0.4023    4.2258 H       1  UNL1        0.0807
     26 H           4.4352    0.1175    2.6019 H       1  UNL1        0.0639
     27 H          -0.8765   -0.1487   -2.1589 H       1  UNL1        0.0639
     28 H          -3.3188   -0.4172   -2.1347 H       1  UNL1        0.0625
     29 H          -3.1886   -0.1624    2.1576 H       1  UNL1        0.0836
     30 H          -5.3222   -2.4787   -0.7436 H       1  UNL1        0.0841
     31 H          -8.3138    0.1637    0.4983 H       1  UNL1        0.0907
     32 H           0.1497   -0.3479    2.7716 H       1  UNL1        0.1654
     33 H           4.1159    1.4547   -2.9097 H       1  UNL1        0.0841
     34 H           7.9744    0.7690   -1.4949 H       1  UNL1        0.0907
@<TRIPOS>BOND
     1     1     2   ar
     2     2     3   ar
     3     3     4   ar
     4     4     5   ar
     5     5     6   ar
     6     6     7    1
     7     7     8   ar
     8     8     9   ar
     9     9    10   ar
    10    10    11   ar
    11    11    12   ar
    12    10    13    1
    13    13    14   ar
    14    14    15   ar
    15    15    16   ar
    16    16    17   ar
    17     6    18   ar
    18    18    19   ar
    19     4    20    1
    20    20    21   ar
    21    21    22   ar
    22    22    23   ar
    23    23    24   ar
    24    19     1   ar
    25    24    20   ar
    26    18     3   ar
    27    12     7   ar
    28    17    13   ar
    29     1    25    1
    30     2    26    1
    31     8    27    1
    32     9    28    1
    33    11    29    1
    34    14    30    1
    35    16    31    1
    36    19    32    1
    37    21    33    1
    38    23    34    1
