@<TRIPOS>MOLECULE
*****
 42 47 0 0 0
SMALL
GASTEIGER

@<TRIPOS>ATOM
      1 C           2.1304    1.0345   -3.9091 C.ar    1  UNL1       -0.0231
      2 C           2.7933    0.8798   -2.6888 C.ar    1  UNL1       -0.0459
      3 C           1.9171    0.5216   -1.6309 C.ar    1  UNL1        0.0047
      4 C           2.1084    0.2914   -0.3091 C.ar    1  UNL1        0.0289
      5 S           0.5695   -0.0390    0.3861 S.2     1  UNL1       -0.0834
      6 C          -0.2705    0.1066   -1.1183 C.ar    1  UNL1        0.0693
      7 C          -1.6899   -0.0859   -1.2055 C.ar    1  UNL1        0.1433
      8 C          -2.4908   -0.3975   -2.2921 C.ar    1  UNL1       -0.0147
      9 C          -3.8283   -0.4804   -1.8294 C.ar    1  UNL1       -0.0152
     10 C          -3.7931   -0.2252   -0.4759 C.ar    1  UNL1        0.1357
     11 O          -2.5024    0.0074   -0.1006 O.2     1  UNL1       -0.4543
     12 C          -4.7986   -0.1592    0.5827 C.ar    1  UNL1        0.0173
     13 C          -6.1576   -0.3529    0.2913 C.ar    1  UNL1       -0.0511
     14 C          -7.1249   -0.2916    1.2995 C.ar    1  UNL1       -0.0611
     15 C          -6.7472   -0.0357    2.6151 C.ar    1  UNL1       -0.0617
     16 C          -5.4038    0.1591    2.9236 C.ar    1  UNL1       -0.0611
     17 C          -4.4379    0.0977    1.9148 C.ar    1  UNL1       -0.0511
     18 C           0.6093    0.4324   -2.1191 C.ar    1  UNL1        0.0377
     19 S           0.3962    0.7746   -3.8880 S.2     1  UNL1       -0.0954
     20 C           3.2978    0.2929    0.5135 C.ar    1  UNL1        0.0000
     21 C           3.5137    1.1295    1.6380 C.ar    1  UNL1       -0.0528
     22 C           4.7178    1.1213    2.4313 C.ar    1  UNL1       -0.0605
     23 C           5.8286    0.2790    2.1884 C.ar    1  UNL1       -0.0510
     24 C           5.5868   -0.5316    1.0876 C.ar    1  UNL1        0.0205
     25 C           6.4237   -1.4788    0.5626 C.ar    1  UNL1        0.0994
     26 O           5.8185   -2.0760   -0.5099 O.2     1  UNL1       -0.4698
     27 C           4.5846   -1.5019   -0.6619 C.ar    1  UNL1        0.1000
     28 C           4.4018   -0.5337    0.2925 C.ar    1  UNL1        0.0281
     29 H           2.5773    1.3036   -4.8567 H       1  UNL1        0.0694
     30 H           3.8620    1.0294   -2.5874 H       1  UNL1        0.0629
     31 H          -2.1605   -0.5621   -3.3072 H       1  UNL1        0.0656
     32 H          -4.7053   -0.7071   -2.4183 H       1  UNL1        0.0656
     33 H          -6.4838   -0.5538   -0.7258 H       1  UNL1        0.0625
     34 H          -8.1731   -0.4441    1.0553 H       1  UNL1        0.0618
     35 H          -7.4985    0.0119    3.3990 H       1  UNL1        0.0618
     36 H          -5.1028    0.3588    3.9487 H       1  UNL1        0.0618
     37 H          -3.3941    0.2524    2.1813 H       1  UNL1        0.0625
     38 H           2.7295    1.8316    1.9260 H       1  UNL1        0.0624
     39 H           4.7714    1.8122    3.2744 H       1  UNL1        0.0618
     40 H           6.7243    0.2808    2.7928 H       1  UNL1        0.0625
     41 H           7.4114   -1.8452    0.8034 H       1  UNL1        0.1035
     42 H           3.9895   -1.8963   -1.4736 H       1  UNL1        0.1036
@<TRIPOS>BOND
     1     1     2   ar
     2     2     3   ar
     3     3     4   ar
     4     4     5   ar
     5     5     6   ar
     6     6     7    1
     7     7     8   ar
     8     8     9   ar
     9     9    10   ar
    10    10    11   ar
    11    10    12    1
    12    12    13   ar
    13    13    14   ar
    14    14    15   ar
    15    15    16   ar
    16    16    17   ar
    17     6    18   ar
    18    18    19   ar
    19     4    20    1
    20    20    21   ar
    21    21    22   ar
    22    22    23   ar
    23    23    24   ar
    24    24    25   ar
    25    25    26   ar
    26    26    27   ar
    27    27    28   ar
    28    19     1   ar
    29    28    20   ar
    30    18     3   ar
    31    28    24   ar
    32    11     7   ar
    33    17    12   ar
    34     1    29    1
    35     2    30    1
    36     8    31    1
    37     9    32    1
    38    13    33    1
    39    14    34    1
    40    15    35    1
    41    16    36    1
    42    17    37    1
    43    21    38    1
    44    22    39    1
    45    23    40    1
    46    25    41    1
    47    27    42    1
