@<TRIPOS>MOLECULE
*****
 46 52 0 0 0
SMALL
GASTEIGER

@<TRIPOS>ATOM
      1 C          -1.4236   -3.6378   -0.6638 C.ar    1  UNL1        0.0028
      2 C          -2.4698   -2.7277   -0.4034 C.ar    1  UNL1       -0.0355
      3 C          -1.8757   -1.5441    0.1025 C.ar    1  UNL1        0.0151
      4 C          -2.1980   -0.3054    0.5359 C.ar    1  UNL1        0.0297
      5 S          -0.7154    0.4955    0.9679 S.2     1  UNL1       -0.0850
      6 C           0.2768   -0.8687    0.5558 C.ar    1  UNL1        0.0503
      7 C           1.7001   -0.9044    0.7103 C.ar    1  UNL1        0.0285
      8 C           2.4412   -1.8621    1.3713 C.ar    1  UNL1       -0.0457
      9 C           3.8399   -1.5961    1.3132 C.ar    1  UNL1       -0.0448
     10 C           4.1417   -0.4309    0.6279 C.ar    1  UNL1        0.0403
     11 S           2.7091    0.2972    0.0306 S.2     1  UNL1       -0.0861
     12 C           5.4665    0.1221    0.3635 C.ar    1  UNL1        0.1056
     13 N           6.5040   -0.7804    0.3116 N.ar    1  UNL1       -0.2522
     14 C           7.7895   -0.3760    0.0730 C.ar    1  UNL1        0.0304
     15 C           8.2378    0.9234   -0.1295 C.ar    1  UNL1       -0.0153
     16 C           7.2146    1.8873   -0.0623 C.ar    1  UNL1        0.1034
     17 N           7.3920    3.2096   -0.2107 N.ar    1  UNL1       -0.1907
     18 S           5.8986    3.9082   -0.0299 S.2     1  UNL1        0.1165
     19 N           4.9650    2.5692    0.2464 N.ar    1  UNL1       -0.1886
     20 C           5.7780    1.4975    0.1953 C.ar    1  UNL1        0.1262
     21 C          -0.5334   -1.8548    0.1065 C.ar    1  UNL1        0.0625
     22 N          -0.1796   -3.0945   -0.3489 N.ar    1  UNL1       -0.3597
     23 C          -3.4836    0.3772    0.6667 C.ar    1  UNL1       -0.0030
     24 C          -4.0041    0.5559    1.9597 C.ar    1  UNL1       -0.0529
     25 C          -5.2338    1.1764    2.1510 C.ar    1  UNL1       -0.0606
     26 C          -5.9606    1.6238    1.0511 C.ar    1  UNL1       -0.0540
     27 C          -5.4701    1.4615   -0.2537 C.ar    1  UNL1       -0.0173
     28 C          -6.2198    1.9224   -1.3490 C.ar    1  UNL1       -0.0540
     29 C          -5.7509    1.7776   -2.6537 C.ar    1  UNL1       -0.0612
     30 C          -4.5231    1.1714   -2.8810 C.ar    1  UNL1       -0.0611
     31 C          -3.7659    0.7075   -1.8031 C.ar    1  UNL1       -0.0534
     32 C          -4.2160    0.8336   -0.4660 C.ar    1  UNL1       -0.0097
     33 H          -1.4700   -4.6436   -1.0614 H       1  UNL1        0.0807
     34 H          -3.5224   -2.9142   -0.5731 H       1  UNL1        0.0639
     35 H           2.0059   -2.7122    1.8830 H       1  UNL1        0.0629
     36 H           4.5998   -2.2264    1.7617 H       1  UNL1        0.0630
     37 H           8.5062   -1.1971    0.0483 H       1  UNL1        0.0830
     38 H           9.2728    1.1738   -0.3126 H       1  UNL1        0.0655
     39 H           0.7525   -3.4811   -0.4373 H       1  UNL1        0.1654
     40 H          -3.4487    0.2029    2.8264 H       1  UNL1        0.0624
     41 H          -5.6268    1.3093    3.1553 H       1  UNL1        0.0618
     42 H          -6.9211    2.1059    1.2212 H       1  UNL1        0.0624
     43 H          -7.1829    2.4038   -1.1921 H       1  UNL1        0.0624
     44 H          -6.3433    2.1411   -3.4889 H       1  UNL1        0.0618
     45 H          -4.1479    1.0587   -3.8947 H       1  UNL1        0.0618
     46 H          -2.8055    0.2448   -2.0209 H       1  UNL1        0.0624
@<TRIPOS>BOND
     1     1     2   ar
     2     2     3   ar
     3     3     4   ar
     4     4     5   ar
     5     5     6   ar
     6     6     7    1
     7     7     8   ar
     8     8     9   ar
     9     9    10   ar
    10    10    11   ar
    11    10    12    1
    12    12    13   ar
    13    13    14   ar
    14    14    15   ar
    15    15    16   ar
    16    16    17   ar
    17    17    18   ar
    18    18    19   ar
    19    19    20   ar
    20     6    21   ar
    21    21    22   ar
    22     4    23    1
    23    23    24   ar
    24    24    25   ar
    25    25    26   ar
    26    26    27   ar
    27    27    28   ar
    28    28    29   ar
    29    29    30   ar
    30    30    31   ar
    31    31    32   ar
    32    22     1   ar
    33    32    23   ar
    34    21     3   ar
    35    32    27   ar
    36    11     7   ar
    37    20    12   ar
    38    20    16   ar
    39     1    33    1
    40     2    34    1
    41     8    35    1
    42     9    36    1
    43    14    37    1
    44    15    38    1
    45    22    39    1
    46    24    40    1
    47    25    41    1
    48    26    42    1
    49    28    43    1
    50    29    44    1
    51    30    45    1
    52    31    46    1
