@<TRIPOS>MOLECULE
*****
 49 55 0 0 0
SMALL
GASTEIGER

@<TRIPOS>ATOM
      1 C          -1.7365   -2.3901   -1.6520 C.ar    1  UNL1        0.0028
      2 C          -0.5579   -1.7314   -1.2414 C.ar    1  UNL1       -0.0355
      3 C          -0.9260   -0.7742   -0.2532 C.ar    1  UNL1        0.0165
      4 C          -0.4087    0.1749    0.5652 C.ar    1  UNL1        0.0453
      5 S          -1.7453    0.8668    1.4513 S.2     1  UNL1       -0.0841
      6 C          -2.9264   -0.1343    0.6895 C.ar    1  UNL1        0.0444
      7 C          -4.3317   -0.0655    0.9993 C.ar    1  UNL1       -0.0002
      8 C          -4.8907   -0.3378    2.2727 C.ar    1  UNL1       -0.0528
      9 C          -6.3010   -0.2885    2.5602 C.ar    1  UNL1       -0.0605
     10 C          -7.2963    0.0411    1.6107 C.ar    1  UNL1       -0.0526
     11 C          -6.7228    0.3136    0.3755 C.ar    1  UNL1        0.0000
     12 C          -7.3966    0.6851   -0.7586 C.ar    1  UNL1        0.0094
     13 N          -6.4486    0.8819   -1.7408 N.ar    1  UNL1       -0.3659
     14 C          -5.1857    0.6300   -1.2445 C.ar    1  UNL1        0.0100
     15 C          -5.3276    0.2669    0.0736 C.ar    1  UNL1        0.0077
     16 C          -2.2929   -0.9471   -0.1821 C.ar    1  UNL1        0.0621
     17 N          -2.8538   -1.9037   -0.9806 N.ar    1  UNL1       -0.3597
     18 C           0.9444    0.6057    0.7654 C.ar    1  UNL1        0.0542
     19 C           1.4484    1.7301    1.3911 C.ar    1  UNL1       -0.0353
     20 C           2.8619    1.6742    1.3147 C.ar    1  UNL1       -0.0358
     21 C           3.2092    0.5147    0.6471 C.ar    1  UNL1        0.0476
     22 N           2.0285   -0.1186    0.3289 N.ar    1  UNL1       -0.3537
     23 C           4.5025   -0.0424    0.3062 C.ar    1  UNL1        0.0074
     24 C           4.8727   -1.3952    0.5153 C.ar    1  UNL1       -0.0520
     25 C           6.1612   -1.9413    0.1746 C.ar    1  UNL1       -0.0605
     26 C           7.2105   -1.1979   -0.4129 C.ar    1  UNL1       -0.0526
     27 C           6.8233    0.1208   -0.6117 C.ar    1  UNL1        0.0000
     28 C           7.5939    1.1059   -1.1725 C.ar    1  UNL1        0.0094
     29 N           6.8229    2.2487   -1.1975 N.ar    1  UNL1       -0.3659
     30 C           5.5754    1.9974   -0.6647 C.ar    1  UNL1        0.0100
     31 C           5.5509    0.6793   -0.2760 C.ar    1  UNL1        0.0085
     32 H          -1.8672   -3.1764   -2.3843 H       1  UNL1        0.0807
     33 H           0.4278   -1.9368   -1.6347 H       1  UNL1        0.0639
     34 H          -4.2204   -0.6089    3.0895 H       1  UNL1        0.0624
     35 H          -6.6180   -0.5185    3.5781 H       1  UNL1        0.0618
     36 H          -8.3512    0.0801    1.8404 H       1  UNL1        0.0624
     37 H          -8.4466    0.8424   -0.9649 H       1  UNL1        0.0813
     38 H          -6.6482    1.1820   -2.6863 H       1  UNL1        0.1648
     39 H          -4.3158    0.7518   -1.8765 H       1  UNL1        0.0813
     40 H          -3.8346   -2.1534   -1.0439 H       1  UNL1        0.1654
     41 H           0.8651    2.5151    1.8553 H       1  UNL1        0.0639
     42 H           3.5570    2.4001    1.7170 H       1  UNL1        0.0639
     43 H           1.9718   -0.9977   -0.1628 H       1  UNL1        0.1659
     44 H           4.1537   -2.0693    0.9811 H       1  UNL1        0.0624
     45 H           6.3372   -2.9960    0.3891 H       1  UNL1        0.0618
     46 H           8.1729   -1.6183   -0.6655 H       1  UNL1        0.0624
     47 H           8.6035    1.1114   -1.5594 H       1  UNL1        0.0813
     48 H           7.1238    3.1422   -1.5632 H       1  UNL1        0.1648
     49 H           4.8318    2.7812   -0.6211 H       1  UNL1        0.0813
@<TRIPOS>BOND
     1     1     2   ar
     2     2     3   ar
     3     3     4   ar
     4     4     5   ar
     5     5     6   ar
     6     6     7    1
     7     7     8   ar
     8     8     9   ar
     9     9    10   ar
    10    10    11   ar
    11    11    12   ar
    12    12    13   ar
    13    13    14   ar
    14    14    15   ar
    15     6    16   ar
    16    16    17   ar
    17     4    18    1
    18    18    19   ar
    19    19    20   ar
    20    20    21   ar
    21    21    22   ar
    22    21    23    1
    23    23    24   ar
    24    24    25   ar
    25    25    26   ar
    26    26    27   ar
    27    27    28   ar
    28    28    29   ar
    29    29    30   ar
    30    30    31   ar
    31    17     1   ar
    32    22    18   ar
    33    31    23   ar
    34    16     3   ar
    35    31    27   ar
    36    15     7   ar
    37    15    11   ar
    38     1    32    1
    39     2    33    1
    40     8    34    1
    41     9    35    1
    42    10    36    1
    43    12    37    1
    44    13    38    1
    45    14    39    1
    46    17    40    1
    47    19    41    1
    48    20    42    1
    49    22    43    1
    50    24    44    1
    51    25    45    1
    52    26    46    1
    53    28    47    1
    54    29    48    1
    55    30    49    1
