@<TRIPOS>MOLECULE
*****
 45 52 0 0 0
SMALL
GASTEIGER

@<TRIPOS>ATOM
      1 C          -1.5389   -2.3279   -2.8817 C.ar    1  UNL1        0.0932
      2 C          -0.3731   -1.8446   -2.2764 C.ar    1  UNL1       -0.0150
      3 C          -0.8189   -1.0388   -1.2108 C.ar    1  UNL1        0.0361
      4 C          -0.3390   -0.2754   -0.1999 C.ar    1  UNL1        0.0379
      5 S          -1.7147    0.3380    0.6777 S.2     1  UNL1       -0.0833
      6 C          -2.8715   -0.4250   -0.3570 C.ar    1  UNL1        0.0634
      7 C          -4.3014   -0.3621   -0.1732 C.ar    1  UNL1        0.0030
      8 C          -5.1607   -1.4938   -0.1952 C.ar    1  UNL1       -0.0527
      9 C          -6.5881   -1.4378   -0.0028 C.ar    1  UNL1       -0.0605
     10 C          -7.3137   -0.2475    0.2282 C.ar    1  UNL1       -0.0510
     11 C          -6.4576    0.8450    0.2293 C.ar    1  UNL1        0.0205
     12 C          -6.8076    2.1572    0.4009 C.ar    1  UNL1        0.0994
     13 O          -5.6900    2.9402    0.3119 O.2     1  UNL1       -0.4698
     14 C          -4.6226    2.1136    0.0830 C.ar    1  UNL1        0.1000
     15 C          -5.0412    0.8064    0.0414 C.ar    1  UNL1        0.0282
     16 C          -2.1890   -1.1250   -1.2866 C.ar    1  UNL1        0.1501
     17 O          -2.7078   -1.8945   -2.2852 O.2     1  UNL1       -0.4617
     18 C           1.0093    0.0452    0.1639 C.ar    1  UNL1        0.0354
     19 S           2.1789    0.5099   -1.0201 S.2     1  UNL1       -0.0854
     20 C           3.4248    0.7249    0.1411 C.ar    1  UNL1        0.0419
     21 C           4.7432    1.1379   -0.1991 C.ar    1  UNL1        0.0413
     22 S           5.1754    2.7844   -0.4717 S.2     1  UNL1       -0.0944
     23 C           6.8261    2.3990   -0.7878 C.ar    1  UNL1       -0.0155
     24 C           6.9694    1.0586   -0.6744 C.ar    1  UNL1       -0.0032
     25 C           8.0731    0.1834   -0.8190 C.ar    1  UNL1       -0.0465
     26 C           7.7257   -1.1555   -0.5954 C.ar    1  UNL1       -0.0231
     27 S           6.0403   -1.4690   -0.1956 S.2     1  UNL1       -0.0955
     28 C           5.8321    0.3207   -0.3451 C.ar    1  UNL1        0.0346
     29 C           2.9703    0.4372    1.3986 C.ar    1  UNL1        0.0352
     30 S           3.7909    0.4633    3.0094 S.2     1  UNL1       -0.0955
     31 C           2.2389   -0.0579    3.6422 C.ar    1  UNL1       -0.0231
     32 C           1.2132   -0.2301    2.7058 C.ar    1  UNL1       -0.0458
     33 C           1.6221    0.0692    1.3760 C.ar    1  UNL1        0.0051
     34 H          -1.6967   -2.9799   -3.7313 H       1  UNL1        0.1030
     35 H           0.6397   -2.0647   -2.5832 H       1  UNL1        0.0655
     36 H          -4.7212   -2.4796   -0.3648 H       1  UNL1        0.0624
     37 H          -7.1393   -2.3788   -0.0414 H       1  UNL1        0.0618
     38 H          -8.3848   -0.2155    0.3671 H       1  UNL1        0.0625
     39 H          -7.7338    2.6855    0.5754 H       1  UNL1        0.1035
     40 H          -3.6734    2.6176   -0.0223 H       1  UNL1        0.1036
     41 H           7.5513    3.1637   -1.0271 H       1  UNL1        0.0700
     42 H           9.0817    0.4868   -1.0714 H       1  UNL1        0.0629
     43 H           8.3854   -2.0122   -0.6437 H       1  UNL1        0.0694
     44 H           2.1710   -0.2142    4.7101 H       1  UNL1        0.0694
     45 H           0.2221   -0.5577    2.9956 H       1  UNL1        0.0629
@<TRIPOS>BOND
     1     1     2   ar
     2     2     3   ar
     3     3     4   ar
     4     4     5   ar
     5     5     6   ar
     6     6     7    1
     7     7     8   ar
     8     8     9   ar
     9     9    10   ar
    10    10    11   ar
    11    11    12   ar
    12    12    13   ar
    13    13    14   ar
    14    14    15   ar
    15     6    16   ar
    16    16    17   ar
    17     4    18    1
    18    18    19   ar
    19    19    20   ar
    20    20    21    1
    21    21    22   ar
    22    22    23   ar
    23    23    24   ar
    24    24    25   ar
    25    25    26   ar
    26    26    27   ar
    27    27    28   ar
    28    20    29   ar
    29    29    30   ar
    30    30    31   ar
    31    31    32   ar
    32    32    33   ar
    33    17     1   ar
    34    33    18   ar
    35    16     3   ar
    36    28    21   ar
    37    33    29   ar
    38    15     7   ar
    39    28    24   ar
    40    15    11   ar
    41     1    34    1
    42     2    35    1
    43     8    36    1
    44     9    37    1
    45    10    38    1
    46    12    39    1
    47    14    40    1
    48    23    41    1
    49    25    42    1
    50    26    43    1
    51    31    44    1
    52    32    45    1
