@<TRIPOS>MOLECULE
*****
 48 54 0 0 0
SMALL
GASTEIGER

@<TRIPOS>ATOM
      1 C           2.7642   -2.3164   -2.4681 C.ar    1  UNL1        0.0932
      2 C           1.4739   -1.9910   -2.0324 C.ar    1  UNL1       -0.0150
      3 C           1.6385   -0.8611   -1.2097 C.ar    1  UNL1        0.0356
      4 C           0.9129   -0.0023   -0.4522 C.ar    1  UNL1        0.0322
      5 S           2.0403    1.1395    0.2426 S.2     1  UNL1       -0.0838
      6 C           3.4222    0.4054   -0.4910 C.ar    1  UNL1        0.0633
      7 C           4.7670    0.8956   -0.3125 C.ar    1  UNL1        0.0005
      8 C           5.1699    2.2137   -0.6452 C.ar    1  UNL1       -0.0528
      9 C           6.5011    2.7132   -0.4724 C.ar    1  UNL1       -0.0606
     10 C           7.5654    1.9519    0.0543 C.ar    1  UNL1       -0.0535
     11 C           7.1653    0.6582    0.3895 C.ar    1  UNL1       -0.0103
     12 C           8.0323   -0.2580    0.9317 C.ar    1  UNL1       -0.0166
     13 S           7.2414   -1.7486    1.2521 S.2     1  UNL1       -0.1039
     14 C           5.7350   -1.1618    0.6641 C.ar    1  UNL1       -0.0160
     15 C           5.8272    0.1374    0.2187 C.ar    1  UNL1       -0.0026
     16 C           2.9948   -0.6367   -1.2297 C.ar    1  UNL1        0.1501
     17 O           3.7527   -1.4811   -1.9840 O.2     1  UNL1       -0.4617
     18 C          -0.5217    0.1002   -0.1987 C.ar    1  UNL1        0.0075
     19 C          -1.4485   -0.0840   -1.2258 C.ar    1  UNL1       -0.0500
     20 C          -2.8169    0.0076   -0.9602 C.ar    1  UNL1       -0.0351
     21 C          -3.2477    0.2713    0.3378 C.ar    1  UNL1        0.0716
     22 N          -2.3646    0.4715    1.3477 N.ar    1  UNL1       -0.2543
     23 C          -1.0415    0.3752    1.0623 C.ar    1  UNL1        0.0365
     24 C          -4.6542    0.4086    0.6968 C.ar    1  UNL1        0.0095
     25 C          -5.1594    1.4456    1.5355 C.ar    1  UNL1       -0.0519
     26 C          -6.5433    1.6210    1.8920 C.ar    1  UNL1       -0.0605
     27 C          -7.5834    0.7724    1.4588 C.ar    1  UNL1       -0.0526
     28 C          -7.0785   -0.2460    0.6628 C.ar    1  UNL1        0.0000
     29 C          -7.8169   -1.2595    0.1095 C.ar    1  UNL1        0.0094
     30 N          -6.9341   -2.0721   -0.5667 N.ar    1  UNL1       -0.3659
     31 C          -5.6480   -1.5841   -0.4498 C.ar    1  UNL1        0.0100
     32 C          -5.7069   -0.4302    0.2972 C.ar    1  UNL1        0.0086
     33 H           3.1345   -3.1029   -3.1130 H       1  UNL1        0.1030
     34 H           0.5665   -2.5188   -2.2880 H       1  UNL1        0.0655
     35 H           4.4309    2.8964   -1.0675 H       1  UNL1        0.0624
     36 H           6.7006    3.7443   -0.7671 H       1  UNL1        0.0618
     37 H           8.5641    2.3493    0.1782 H       1  UNL1        0.0624
     38 H           9.0820   -0.1446    1.1643 H       1  UNL1        0.0699
     39 H           4.8767   -1.8185    0.6809 H       1  UNL1        0.0700
     40 H          -1.1214   -0.2784   -2.2439 H       1  UNL1        0.0625
     41 H          -3.5313   -0.1046   -1.7697 H       1  UNL1        0.0639
     42 H          -0.3951    0.5242    1.9236 H       1  UNL1        0.0836
     43 H          -4.4443    2.1659    1.9392 H       1  UNL1        0.0624
     44 H          -6.7963    2.4600    2.5409 H       1  UNL1        0.0618
     45 H          -8.6186    0.9054    1.7365 H       1  UNL1        0.0624
     46 H          -8.8723   -1.4931    0.1408 H       1  UNL1        0.0813
     47 H          -7.1891   -2.9174   -1.0606 H       1  UNL1        0.1648
     48 H          -4.8256   -2.1229   -0.8991 H       1  UNL1        0.0813
@<TRIPOS>BOND
     1     1     2   ar
     2     2     3   ar
     3     3     4   ar
     4     4     5   ar
     5     5     6   ar
     6     6     7    1
     7     7     8   ar
     8     8     9   ar
     9     9    10   ar
    10    10    11   ar
    11    11    12   ar
    12    12    13   ar
    13    13    14   ar
    14    14    15   ar
    15     6    16   ar
    16    16    17   ar
    17     4    18    1
    18    18    19   ar
    19    19    20   ar
    20    20    21   ar
    21    21    22   ar
    22    22    23   ar
    23    21    24    1
    24    24    25   ar
    25    25    26   ar
    26    26    27   ar
    27    27    28   ar
    28    28    29   ar
    29    29    30   ar
    30    30    31   ar
    31    31    32   ar
    32    17     1   ar
    33    23    18   ar
    34    32    24   ar
    35    16     3   ar
    36    32    28   ar
    37    15     7   ar
    38    15    11   ar
    39     1    33    1
    40     2    34    1
    41     8    35    1
    42     9    36    1
    43    10    37    1
    44    12    38    1
    45    14    39    1
    46    19    40    1
    47    20    41    1
    48    23    42    1
    49    25    43    1
    50    26    44    1
    51    27    45    1
    52    29    46    1
    53    30    47    1
    54    31    48    1
