@<TRIPOS>MOLECULE
*****
 44 50 0 0 0
SMALL
GASTEIGER

@<TRIPOS>ATOM
      1 C          -1.9510   -2.9414   -1.7943 C.ar    1  UNL1        0.0932
      2 C          -0.7152   -2.3709   -1.4640 C.ar    1  UNL1       -0.0150
      3 C          -1.0244   -1.2935   -0.6125 C.ar    1  UNL1        0.0356
      4 C          -0.4186   -0.3028    0.0881 C.ar    1  UNL1        0.0322
      5 S          -1.6840    0.6003    0.8898 S.2     1  UNL1       -0.0838
      6 C          -2.9552   -0.3621    0.2256 C.ar    1  UNL1        0.0633
      7 C          -4.3527   -0.1655    0.5169 C.ar    1  UNL1        0.0005
      8 C          -5.1404   -1.1092    1.2214 C.ar    1  UNL1       -0.0528
      9 C          -6.5270   -0.9240    1.5285 C.ar    1  UNL1       -0.0606
     10 C          -7.2698    0.2173    1.1593 C.ar    1  UNL1       -0.0535
     11 C          -6.4951    1.1383    0.4534 C.ar    1  UNL1       -0.0103
     12 C          -7.0113    2.3188   -0.0205 C.ar    1  UNL1       -0.0166
     13 S          -5.8209    3.2226   -0.8667 S.2     1  UNL1       -0.1039
     14 C          -4.6133    2.0274   -0.5973 C.ar    1  UNL1       -0.0160
     15 C          -5.0948    0.9675    0.1370 C.ar    1  UNL1       -0.0026
     16 C          -2.3965   -1.3250   -0.5314 C.ar    1  UNL1        0.1501
     17 O          -3.0384   -2.3089   -1.2215 O.2     1  UNL1       -0.4617
     18 C           0.9892    0.0425    0.2670 C.ar    1  UNL1        0.0075
     19 C           1.4443    1.3635    0.2653 C.ar    1  UNL1       -0.0500
     20 C           2.8050    1.6355    0.4242 C.ar    1  UNL1       -0.0346
     21 C           3.6904    0.5737    0.5783 C.ar    1  UNL1        0.0786
     22 N           3.2814   -0.7154    0.5864 N.ar    1  UNL1       -0.2538
     23 C           1.9547   -0.9473    0.4322 C.ar    1  UNL1        0.0365
     24 C           5.1209    0.7705    0.7518 C.ar    1  UNL1        0.0518
     25 S           5.7734    1.9065    1.8780 S.2     1  UNL1       -0.0934
     26 C           7.4028    1.5073    1.4906 C.ar    1  UNL1       -0.0154
     27 C           7.3799    0.5527    0.5346 C.ar    1  UNL1       -0.0032
     28 C           8.3990   -0.1376   -0.1635 C.ar    1  UNL1       -0.0465
     29 C           7.8848   -1.0486   -1.0924 C.ar    1  UNL1       -0.0231
     30 S           6.1325   -1.1470   -1.2020 S.2     1  UNL1       -0.0955
     31 C           6.1293    0.1154    0.0944 C.ar    1  UNL1        0.0355
     32 H          -2.2152   -3.7846   -2.4196 H       1  UNL1        0.1030
     33 H           0.2508   -2.7080   -1.8121 H       1  UNL1        0.0655
     34 H          -4.6706   -2.0355    1.5561 H       1  UNL1        0.0624
     35 H          -7.0365   -1.7159    2.0791 H       1  UNL1        0.0618
     36 H          -8.3183    0.3354    1.3991 H       1  UNL1        0.0624
     37 H          -8.0168    2.7056    0.0713 H       1  UNL1        0.0699
     38 H          -3.6236    2.1848   -1.0021 H       1  UNL1        0.0700
     39 H           0.7556    2.1935    0.1284 H       1  UNL1        0.0625
     40 H           3.1559    2.6623    0.4134 H       1  UNL1        0.0639
     41 H           1.6865   -2.0008    0.4579 H       1  UNL1        0.0836
     42 H           8.2380    1.9914    1.9769 H       1  UNL1        0.0700
     43 H           9.4627    0.0052   -0.0174 H       1  UNL1        0.0629
     44 H           8.4529   -1.6942   -1.7481 H       1  UNL1        0.0694
@<TRIPOS>BOND
     1     1     2   ar
     2     2     3   ar
     3     3     4   ar
     4     4     5   ar
     5     5     6   ar
     6     6     7    1
     7     7     8   ar
     8     8     9   ar
     9     9    10   ar
    10    10    11   ar
    11    11    12   ar
    12    12    13   ar
    13    13    14   ar
    14    14    15   ar
    15     6    16   ar
    16    16    17   ar
    17     4    18    1
    18    18    19   ar
    19    19    20   ar
    20    20    21   ar
    21    21    22   ar
    22    22    23   ar
    23    21    24    1
    24    24    25   ar
    25    25    26   ar
    26    26    27   ar
    27    27    28   ar
    28    28    29   ar
    29    29    30   ar
    30    30    31   ar
    31    17     1   ar
    32    23    18   ar
    33    31    24   ar
    34    16     3   ar
    35    31    27   ar
    36    15     7   ar
    37    15    11   ar
    38     1    32    1
    39     2    33    1
    40     8    34    1
    41     9    35    1
    42    10    36    1
    43    12    37    1
    44    14    38    1
    45    19    39    1
    46    20    40    1
    47    23    41    1
    48    26    42    1
    49    28    43    1
    50    29    44    1
