@<TRIPOS>MOLECULE
*****
 45 51 0 0 0
SMALL
GASTEIGER

@<TRIPOS>ATOM
      1 C          -2.3616   -2.4585    2.7498 C.ar    1  UNL1       -0.0231
      2 C          -1.2174   -1.9560    2.1206 C.ar    1  UNL1       -0.0459
      3 C          -1.5227   -0.9964    1.1201 C.ar    1  UNL1        0.0046
      4 C          -0.7694   -0.2525    0.2725 C.ar    1  UNL1        0.0288
      5 S          -1.8428    0.7039   -0.6815 S.2     1  UNL1       -0.0864
      6 C          -3.2465    0.0680    0.0805 C.ar    1  UNL1        0.0363
      7 C          -4.5805    0.4838   -0.2907 C.ar    1  UNL1        0.0180
      8 C          -5.0886    1.7709   -0.0118 C.ar    1  UNL1       -0.0513
      9 C          -6.3950    2.1800   -0.3684 C.ar    1  UNL1       -0.0590
     10 C          -7.3054    1.3420   -1.0354 C.ar    1  UNL1       -0.0335
     11 C          -6.8484    0.0384   -1.3475 C.ar    1  UNL1        0.1005
     12 N          -7.5595   -0.9065   -1.9814 N.ar    1  UNL1       -0.1908
     13 S          -6.5720   -2.2357   -2.0996 S.2     1  UNL1        0.1165
     14 N          -5.1974   -1.6720   -1.3634 N.ar    1  UNL1       -0.1901
     15 C          -5.4540   -0.4102   -0.9728 C.ar    1  UNL1        0.1081
     16 C          -2.9079   -0.8407    1.0451 C.ar    1  UNL1        0.0347
     17 S          -3.9020   -1.8211    2.1920 S.2     1  UNL1       -0.0955
     18 C           0.6626   -0.1585    0.0789 C.ar    1  UNL1       -0.0024
     19 C           1.3201   -0.5800   -1.0991 C.ar    1  UNL1       -0.0523
     20 C           2.7363   -0.5086   -1.2869 C.ar    1  UNL1       -0.0528
     21 C           3.6491   -0.0134   -0.3190 C.ar    1  UNL1       -0.0082
     22 C           5.0881    0.0389   -0.5320 C.ar    1  UNL1        0.0008
     23 C           5.6544    0.8792   -1.4969 C.ar    1  UNL1       -0.0511
     24 C           7.0356    0.9032   -1.6808 C.ar    1  UNL1       -0.0430
     25 C           7.8177    0.0773   -0.8916 C.ar    1  UNL1        0.0276
     26 N           7.3178   -0.7538    0.0462 N.ar    1  UNL1       -0.2627
     27 C           5.9714   -0.7557    0.1991 C.ar    1  UNL1        0.0353
     28 C           2.9899    0.4169    0.8507 C.ar    1  UNL1       -0.0025
     29 C           3.6259    0.9795    1.9346 C.ar    1  UNL1       -0.0160
     30 S           2.5199    1.4024    3.1775 S.2     1  UNL1       -0.1038
     31 C           1.1727    0.8573    2.2647 C.ar    1  UNL1       -0.0160
     32 C           1.5524    0.3470    1.0438 C.ar    1  UNL1       -0.0021
     33 H          -2.3934   -3.1963    3.5402 H       1  UNL1        0.0694
     34 H          -0.2184   -2.2804    2.3867 H       1  UNL1        0.0629
     35 H          -4.4513    2.4876    0.5084 H       1  UNL1        0.0624
     36 H          -6.7108    3.1921   -0.1126 H       1  UNL1        0.0618
     37 H          -8.3035    1.6692   -1.3014 H       1  UNL1        0.0640
     38 H           0.7232   -0.9934   -1.9137 H       1  UNL1        0.0624
     39 H           3.1328   -0.8727   -2.2369 H       1  UNL1        0.0624
     40 H           5.0230    1.5248   -2.1032 H       1  UNL1        0.0625
     41 H           7.4894    1.5525   -2.4211 H       1  UNL1        0.0633
     42 H           8.8988    0.0613   -0.9966 H       1  UNL1        0.0829
     43 H           5.6071   -1.4458    0.9568 H       1  UNL1        0.0836
     44 H           4.6790    1.1787    2.0809 H       1  UNL1        0.0700
     45 H           0.1813    0.9533    2.6858 H       1  UNL1        0.0700
@<TRIPOS>BOND
     1     1     2   ar
     2     2     3   ar
     3     3     4   ar
     4     4     5   ar
     5     5     6   ar
     6     6     7    1
     7     7     8   ar
     8     8     9   ar
     9     9    10   ar
    10    10    11   ar
    11    11    12   ar
    12    12    13   ar
    13    13    14   ar
    14    14    15   ar
    15     6    16   ar
    16    16    17   ar
    17     4    18    1
    18    18    19   ar
    19    19    20   ar
    20    20    21   ar
    21    21    22    1
    22    22    23   ar
    23    23    24   ar
    24    24    25   ar
    25    25    26   ar
    26    26    27   ar
    27    21    28   ar
    28    28    29   ar
    29    29    30   ar
    30    30    31   ar
    31    31    32   ar
    32    17     1   ar
    33    32    18   ar
    34    16     3   ar
    35    27    22   ar
    36    32    28   ar
    37    15     7   ar
    38    15    11   ar
    39     1    33    1
    40     2    34    1
    41     8    35    1
    42     9    36    1
    43    10    37    1
    44    19    38    1
    45    20    39    1
    46    23    40    1
    47    24    41    1
    48    25    42    1
    49    27    43    1
    50    29    44    1
    51    31    45    1
