@<TRIPOS>MOLECULE
*****
 41 46 0 0 0
SMALL
GASTEIGER

@<TRIPOS>ATOM
      1 SI         -1.1628   -2.9804   -2.7179 Si      1  UNL1        0.0000
      2 C          -2.3714   -1.9794   -1.7139 C.2     1  UNL1        0.0000
      3 C          -1.7607   -1.0776   -0.9180 C.ar    1  UNL1        0.0000
      4 C          -2.3712   -0.1338   -0.0061 C.ar    1  UNL1        0.0000
      5 C          -3.7727    0.0723    0.3242 C.ar    1  UNL1        0.0000
      6 C          -4.9762   -0.5566   -0.0998 C.ar    1  UNL1        0.0000
      7 C          -6.2283   -0.1534    0.3814 C.ar    1  UNL1        0.0000
      8 C          -6.3248    0.8801    1.2949 C.ar    1  UNL1        0.0000
      9 C          -5.1735    1.5226    1.7424 C.ar    1  UNL1        0.0000
     10 C          -3.9147    1.1101    1.2540 C.ar    1  UNL1        0.0000
     11 S          -2.4041    1.7810    1.7008 S.2     1  UNL1        0.0000
     12 C          -1.5295    0.7276    0.6913 C.ar    1  UNL1        0.0000
     13 C          -0.0500    0.7615    0.6009 C.ar    1  UNL1        0.0000
     14 C           0.7415    1.6603    1.3357 C.ar    1  UNL1        0.0000
     15 C           2.1345    1.6514    1.2239 C.ar    1  UNL1        0.0000
     16 C           2.7714    0.7402    0.3808 C.ar    1  UNL1        0.0000
     17 C           1.9916   -0.1527   -0.3654 C.ar    1  UNL1        0.0000
     18 C           0.5875   -0.1578   -0.2664 C.ar    1  UNL1        0.0000
     19 C          -0.2687   -1.0927   -1.0452 C.ar    1  UNL1        0.0000
     20 C           0.2052   -2.0074   -1.9200 C.2     1  UNL1        0.0000
     21 C           4.2252    0.7439    0.2710 C.2     1  UNL1        0.0000
     22 C           4.9958    1.7520   -0.1884 C.2     1  UNL1        0.0000
     23 C           6.4276    1.4933   -0.1798 C.2     1  UNL1        0.0000
     24 C           6.7905    0.2860    0.2904 C.2     1  UNL1        0.0000
     25 SI          5.2895   -0.7263    0.8081 Si      1  UNL1        0.0000
     26 H          -1.2784   -2.7168   -4.1720 H       1  UNL1        0.0000
     27 H          -1.1488   -4.4101   -2.3266 H       1  UNL1        0.0000
     28 H          -3.4177   -2.1781   -1.8362 H       1  UNL1        0.0000
     29 H          -4.9595   -1.3742   -0.8089 H       1  UNL1        0.0000
     30 H          -7.1266   -0.6579    0.0338 H       1  UNL1        0.0000
     31 H          -7.2974    1.1916    1.6670 H       1  UNL1        0.0000
     32 H          -5.2450    2.3332    2.4628 H       1  UNL1        0.0000
     33 H           0.2951    2.3857    2.0105 H       1  UNL1        0.0000
     34 H           2.7166    2.3606    1.8089 H       1  UNL1        0.0000
     35 H           2.4932   -0.8405   -1.0398 H       1  UNL1        0.0000
     36 H           1.2277   -2.2112   -2.1900 H       1  UNL1        0.0000
     37 H           4.6087    2.6973   -0.5499 H       1  UNL1        0.0000
     38 H           7.1290    2.2390   -0.5336 H       1  UNL1        0.0000
     39 H           7.7924   -0.1024    0.3818 H       1  UNL1        0.0000
     40 H           5.0971   -1.9164   -0.0595 H       1  UNL1        0.0000
     41 H           5.2619   -0.9638    2.2729 H       1  UNL1        0.0000
@<TRIPOS>BOND
     1     1     2    1
     2     2     3    2
     3     3     4   ar
     4     4     5   ar
     5     5     6   ar
     6     6     7   ar
     7     7     8   ar
     8     8     9   ar
     9     9    10   ar
    10    10    11   ar
    11    11    12   ar
    12    12    13   ar
    13    13    14   ar
    14    14    15   ar
    15    15    16   ar
    16    16    17   ar
    17    17    18   ar
    18    18    19   ar
    19    19    20    2
    20    16    21    1
    21    21    22    2
    22    22    23    1
    23    23    24    2
    24    24    25    1
    25    20     1    1
    26    25    21    1
    27    19     3   ar
    28    12     4   ar
    29    18    13   ar
    30    10     5   ar
    31     1    26    1
    32     1    27    1
    33     2    28    1
    34     6    29    1
    35     7    30    1
    36     8    31    1
    37     9    32    1
    38    14    33    1
    39    15    34    1
    40    17    35    1
    41    20    36    1
    42    22    37    1
    43    23    38    1
    44    24    39    1
    45    25    40    1
    46    25    41    1
