@<TRIPOS>MOLECULE
*****
 37 42 0 0 0
SMALL
GASTEIGER

@<TRIPOS>ATOM
      1 C          -2.7954   -3.4918    0.2535 C.ar    1  UNL1        0.0932
      2 C          -1.4630   -3.0709    0.2347 C.ar    1  UNL1       -0.0149
      3 C          -1.5241   -1.6694    0.1277 C.ar    1  UNL1        0.0376
      4 C          -0.6931   -0.6025    0.0549 C.ar    1  UNL1        0.0558
      5 S          -1.7075    0.8076   -0.0622 S.2     1  UNL1       -0.0803
      6 C          -3.1986   -0.0842   -0.0091 C.ar    1  UNL1        0.0809
      7 C          -4.5252    0.5303   -0.0689 C.ar    1  UNL1        0.0811
      8 C          -4.7278    1.9066   -0.1756 C.ar    1  UNL1       -0.0351
      9 C          -6.0299    2.4053   -0.2262 C.ar    1  UNL1       -0.0583
     10 C          -7.0995    1.5239   -0.1696 C.ar    1  UNL1       -0.0436
     11 C          -6.8197    0.1749   -0.0642 C.ar    1  UNL1        0.0283
     12 N          -5.5684   -0.3306   -0.0135 N.ar    1  UNL1       -0.2543
     13 C          -2.8718   -1.3925    0.0934 C.ar    1  UNL1        0.1516
     14 O          -3.7133   -2.4644    0.1664 O.2     1  UNL1       -0.4617
     15 C           0.7471   -0.5765    0.0671 C.ar    1  UNL1        0.1161
     16 N           1.4534   -1.6845    0.1581 N.ar    1  UNL1       -0.2461
     17 C           2.8046   -1.3889    0.1490 C.ar    1  UNL1        0.0448
     18 C           3.1428   -0.0507    0.0508 C.ar    1  UNL1        0.0597
     19 S           1.6809    0.8604   -0.0327 S.2     1  UNL1       -0.0651
     20 C           4.4401    0.6150    0.0130 C.ar    1  UNL1        0.1071
     21 N           4.4755    1.9853   -0.0907 N.ar    1  UNL1       -0.2521
     22 C           5.6580    2.6734   -0.1313 C.ar    1  UNL1        0.0305
     23 C           6.9403    2.1421   -0.0783 C.ar    1  UNL1       -0.0153
     24 C           6.9602    0.7395    0.0284 C.ar    1  UNL1        0.1034
     25 N           8.0693   -0.0131    0.0965 N.ar    1  UNL1       -0.1907
     26 S           7.5663   -1.5886    0.2113 S.2     1  UNL1        0.1165
     27 N           5.9207   -1.3887    0.1799 N.ar    1  UNL1       -0.1886
     28 C           5.6845   -0.0670    0.0771 C.ar    1  UNL1        0.1263
     29 H          -3.2449   -4.4735    0.3235 H       1  UNL1        0.1030
     30 H          -0.5887   -3.7042    0.2913 H       1  UNL1        0.0655
     31 H          -3.8993    2.6046   -0.2206 H       1  UNL1        0.0639
     32 H          -6.2029    3.4745   -0.3093 H       1  UNL1        0.0619
     33 H          -8.1235    1.8773   -0.2065 H       1  UNL1        0.0633
     34 H          -7.6157   -0.5626   -0.0159 H       1  UNL1        0.0830
     35 H           3.5030   -2.2143    0.2186 H       1  UNL1        0.0842
     36 H           5.5297    3.7530   -0.2145 H       1  UNL1        0.0830
     37 H           7.8361    2.7451   -0.1152 H       1  UNL1        0.0655
@<TRIPOS>BOND
     1     1     2   ar
     2     2     3   ar
     3     3     4   ar
     4     4     5   ar
     5     5     6   ar
     6     6     7    1
     7     7     8   ar
     8     8     9   ar
     9     9    10   ar
    10    10    11   ar
    11    11    12   ar
    12     6    13   ar
    13    13    14   ar
    14     4    15    1
    15    15    16   ar
    16    16    17   ar
    17    17    18   ar
    18    18    19   ar
    19    18    20    1
    20    20    21   ar
    21    21    22   ar
    22    22    23   ar
    23    23    24   ar
    24    24    25   ar
    25    25    26   ar
    26    26    27   ar
    27    27    28   ar
    28    14     1   ar
    29    19    15   ar
    30    28    20   ar
    31    13     3   ar
    32    28    24   ar
    33    12     7   ar
    34     1    29    1
    35     2    30    1
    36     8    31    1
    37     9    32    1
    38    10    33    1
    39    11    34    1
    40    17    35    1
    41    22    36    1
    42    23    37    1
