@<TRIPOS>MOLECULE
*****
 47 53 0 0 0
SMALL
GASTEIGER

@<TRIPOS>ATOM
      1 C           2.9239   -2.3975    2.7244 C.ar    1  UNL1        0.0932
      2 C           1.7558   -1.8689    2.1647 C.ar    1  UNL1       -0.0150
      3 C           2.1952   -0.9416    1.1988 C.ar    1  UNL1        0.0362
      4 C           1.7045   -0.0677    0.2847 C.ar    1  UNL1        0.0410
      5 S           3.0813    0.6803   -0.4865 S.2     1  UNL1       -0.0817
      6 C           4.2437   -0.2174    0.4275 C.ar    1  UNL1        0.0809
      7 C           5.6795   -0.0923    0.2560 C.ar    1  UNL1        0.0811
      8 C           6.3056    1.1400    0.0819 C.ar    1  UNL1       -0.0351
      9 C           7.6879    1.1744   -0.0888 C.ar    1  UNL1       -0.0583
     10 C           8.4038   -0.0160   -0.0827 C.ar    1  UNL1       -0.0436
     11 C           7.7040   -1.1970    0.0936 C.ar    1  UNL1        0.0283
     12 N           6.3653   -1.2603    0.2584 N.ar    1  UNL1       -0.2543
     13 C           3.5679   -1.0222    1.2714 C.ar    1  UNL1        0.1516
     14 O           4.0886   -1.8822    2.1929 O.2     1  UNL1       -0.4617
     15 C           0.3527    0.2756   -0.0403 C.ar    1  UNL1        0.0700
     16 S          -0.9597    0.2355    1.1008 S.2     1  UNL1       -0.0833
     17 C          -2.1425    0.7689   -0.0556 C.ar    1  UNL1        0.0314
     18 C          -3.5419    0.9368    0.3296 C.ar    1  UNL1       -0.0029
     19 C          -3.8807    2.0631    1.0982 C.ar    1  UNL1       -0.0529
     20 C          -5.1989    2.2934    1.4763 C.ar    1  UNL1       -0.0606
     21 C          -6.1953    1.4020    1.0878 C.ar    1  UNL1       -0.0540
     22 C          -5.8908    0.2675    0.3201 C.ar    1  UNL1       -0.0173
     23 C          -6.9125   -0.6192   -0.0591 C.ar    1  UNL1       -0.0540
     24 C          -6.6340   -1.7557   -0.8166 C.ar    1  UNL1       -0.0612
     25 C          -5.3281   -2.0226   -1.2038 C.ar    1  UNL1       -0.0611
     26 C          -4.3010   -1.1509   -0.8353 C.ar    1  UNL1       -0.0534
     27 C          -4.5509    0.0154   -0.0711 C.ar    1  UNL1       -0.0097
     28 C          -1.5048    0.9501   -1.2335 C.ar    1  UNL1        0.0356
     29 C          -1.7733    1.3381   -2.5563 C.ar    1  UNL1       -0.0150
     30 C          -0.5400    1.2566   -3.2124 C.ar    1  UNL1        0.0932
     31 O           0.5047    0.8436   -2.4069 O.2     1  UNL1       -0.4617
     32 C          -0.1562    0.6830   -1.2247 C.ar    1  UNL1        0.1506
     33 H           3.0869   -3.1367    3.4976 H       1  UNL1        0.1030
     34 H           0.7464   -2.1390    2.4390 H       1  UNL1        0.0655
     35 H           5.7385    2.0648    0.0859 H       1  UNL1        0.0639
     36 H           8.1995    2.1231   -0.2234 H       1  UNL1        0.0619
     37 H           9.4802   -0.0244   -0.2111 H       1  UNL1        0.0633
     38 H           8.2153   -2.1554    0.1075 H       1  UNL1        0.0830
     39 H          -3.1125    2.7716    1.4020 H       1  UNL1        0.0624
     40 H          -5.4509    3.1673    2.0714 H       1  UNL1        0.0618
     41 H          -7.2209    1.6004    1.3930 H       1  UNL1        0.0624
     42 H          -7.9424   -0.4305    0.2372 H       1  UNL1        0.0624
     43 H          -7.4366   -2.4313   -1.1000 H       1  UNL1        0.0618
     44 H          -5.1025   -2.9097   -1.7901 H       1  UNL1        0.0618
     45 H          -3.2902   -1.4001   -1.1513 H       1  UNL1        0.0624
     46 H          -2.7147    1.6330   -2.9977 H       1  UNL1        0.0655
     47 H          -0.2500    1.4543   -4.2362 H       1  UNL1        0.1030
@<TRIPOS>BOND
     1     1     2   ar
     2     2     3   ar
     3     3     4   ar
     4     4     5   ar
     5     5     6   ar
     6     6     7    1
     7     7     8   ar
     8     8     9   ar
     9     9    10   ar
    10    10    11   ar
    11    11    12   ar
    12     6    13   ar
    13    13    14   ar
    14     4    15    1
    15    15    16   ar
    16    16    17   ar
    17    17    18    1
    18    18    19   ar
    19    19    20   ar
    20    20    21   ar
    21    21    22   ar
    22    22    23   ar
    23    23    24   ar
    24    24    25   ar
    25    25    26   ar
    26    26    27   ar
    27    17    28   ar
    28    28    29   ar
    29    29    30   ar
    30    30    31   ar
    31    31    32   ar
    32    14     1   ar
    33    32    15   ar
    34    13     3   ar
    35    27    18   ar
    36    32    28   ar
    37    12     7   ar
    38    27    22   ar
    39     1    33    1
    40     2    34    1
    41     8    35    1
    42     9    36    1
    43    10    37    1
    44    11    38    1
    45    19    39    1
    46    20    40    1
    47    21    41    1
    48    23    42    1
    49    24    43    1
    50    25    44    1
    51    26    45    1
    52    29    46    1
    53    30    47    1
