@<TRIPOS>MOLECULE
*****
 39 44 0 0 0
SMALL
GASTEIGER

@<TRIPOS>ATOM
      1 C          -2.1893   -2.7185    1.8582 C.ar    1  UNL1        0.0932
      2 C          -0.9076   -2.2428    1.5619 C.ar    1  UNL1       -0.0150
      3 C          -1.1151   -1.1090    0.7544 C.ar    1  UNL1        0.0362
      4 C          -0.4163   -0.1452    0.1095 C.ar    1  UNL1        0.0395
      5 S          -1.5768    0.9027   -0.6568 S.2     1  UNL1       -0.0818
      6 C          -2.9529    0.0100   -0.0840 C.ar    1  UNL1        0.0809
      7 C          -4.3318    0.3707   -0.3891 C.ar    1  UNL1        0.0811
      8 C          -5.3809   -0.5451   -0.3569 C.ar    1  UNL1       -0.0351
      9 C          -6.6702   -0.1127   -0.6649 C.ar    1  UNL1       -0.0583
     10 C          -6.8809    1.2181   -0.9984 C.ar    1  UNL1       -0.0436
     11 C          -5.7875    2.0646   -1.0122 C.ar    1  UNL1        0.0283
     12 N          -4.5288    1.6720   -0.7188 N.ar    1  UNL1       -0.2543
     13 C          -2.4844   -1.0210    0.6505 C.ar    1  UNL1        0.1516
     14 O          -3.2115   -1.9750    1.3015 O.2     1  UNL1       -0.4617
     15 C           1.0017    0.0562   -0.0092 C.ar    1  UNL1        0.0547
     16 S           2.0344   -1.2518   -0.4359 S.2     1  UNL1       -0.0802
     17 C           3.4581   -0.2832   -0.3984 C.ar    1  UNL1        0.0844
     18 C           4.7492   -0.8934   -0.6802 C.ar    1  UNL1        0.1717
     19 N           4.8190   -1.7146   -1.7319 N.ar    1  UNL1       -0.2154
     20 C           6.0232   -2.2434   -1.9242 C.ar    1  UNL1        0.1201
     21 N           7.1028   -2.0282   -1.1756 N.ar    1  UNL1       -0.2241
     22 C           6.8978   -1.1989   -0.1542 C.ar    1  UNL1        0.1201
     23 N           5.7490   -0.6076    0.1550 N.ar    1  UNL1       -0.2154
     24 C           3.1496    1.0166   -0.0663 C.ar    1  UNL1        0.1075
     25 N           4.0741    2.0184    0.0264 N.ar    1  UNL1       -0.2507
     26 C           3.4947    3.1967    0.3761 C.ar    1  UNL1        0.0464
     27 C           2.1305    3.3816    0.6131 C.ar    1  UNL1        0.0464
     28 N           1.1859    2.4105    0.5246 N.ar    1  UNL1       -0.2507
     29 C           1.7332    1.2119    0.1647 C.ar    1  UNL1        0.1051
     30 H          -2.5301   -3.5608    2.4463 H       1  UNL1        0.1030
     31 H           0.0237   -2.6728    1.9018 H       1  UNL1        0.0655
     32 H          -5.2154   -1.5871   -0.1057 H       1  UNL1        0.0639
     33 H          -7.5003   -0.8130   -0.6445 H       1  UNL1        0.0619
     34 H          -7.8706    1.5863   -1.2428 H       1  UNL1        0.0633
     35 H          -5.8946    3.1149   -1.2676 H       1  UNL1        0.0830
     36 H           6.1370   -2.9135   -2.7696 H       1  UNL1        0.1048
     37 H           7.7470   -0.9880    0.4869 H       1  UNL1        0.1048
     38 H           4.1822    4.0329    0.4683 H       1  UNL1        0.0845
     39 H           1.7519    4.3614    0.8908 H       1  UNL1        0.0845
@<TRIPOS>BOND
     1     1     2   ar
     2     2     3   ar
     3     3     4   ar
     4     4     5   ar
     5     5     6   ar
     6     6     7    1
     7     7     8   ar
     8     8     9   ar
     9     9    10   ar
    10    10    11   ar
    11    11    12   ar
    12     6    13   ar
    13    13    14   ar
    14     4    15    1
    15    15    16   ar
    16    16    17   ar
    17    17    18    1
    18    18    19   ar
    19    19    20   ar
    20    20    21   ar
    21    21    22   ar
    22    22    23   ar
    23    17    24   ar
    24    24    25   ar
    25    25    26   ar
    26    26    27   ar
    27    27    28   ar
    28    28    29   ar
    29    14     1   ar
    30    29    15   ar
    31    13     3   ar
    32    23    18   ar
    33    29    24   ar
    34    12     7   ar
    35     1    30    1
    36     2    31    1
    37     8    32    1
    38     9    33    1
    39    10    34    1
    40    11    35    1
    41    20    36    1
    42    22    37    1
    43    26    38    1
    44    27    39    1
