@<TRIPOS>MOLECULE
*****
 40 45 0 0 0
SMALL
GASTEIGER

@<TRIPOS>ATOM
      1 C           2.2003    2.2869    1.6359 C.ar    1  UNL1        0.0932
      2 C           1.0013    1.6861    1.2417 C.ar    1  UNL1       -0.0150
      3 C           1.3736    0.6726    0.3347 C.ar    1  UNL1        0.0369
      4 C           0.8255   -0.2952   -0.4401 C.ar    1  UNL1        0.0469
      5 S           2.1435   -1.0900   -1.2551 S.2     1  UNL1       -0.0824
      6 C           3.3798   -0.1049   -0.5350 C.ar    1  UNL1        0.0642
      7 C           4.8141   -0.2640   -0.8164 C.ar    1  UNL1        0.0104
      8 C           5.7955    0.5422   -0.2239 C.ar    1  UNL1       -0.0505
      9 C           7.1494    0.3606   -0.5165 C.ar    1  UNL1       -0.0430
     10 C           7.5033   -0.6348   -1.4062 C.ar    1  UNL1        0.0276
     11 N           6.6082   -1.4401   -2.0067 N.ar    1  UNL1       -0.2626
     12 C           5.2996   -1.2352   -1.6987 C.ar    1  UNL1        0.0359
     13 C           2.7488    0.7715    0.2806 C.ar    1  UNL1        0.1502
     14 O           3.3221    1.7396    1.0531 O.2     1  UNL1       -0.4617
     15 C          -0.5396   -0.6946   -0.6448 C.ar    1  UNL1        0.0543
     16 C          -1.0692   -1.6874   -1.4430 C.ar    1  UNL1       -0.0353
     17 C          -2.4761   -1.6687   -1.2849 C.ar    1  UNL1       -0.0357
     18 C          -2.8128   -0.6651   -0.3898 C.ar    1  UNL1        0.0491
     19 N          -1.6078   -0.0933   -0.0211 N.ar    1  UNL1       -0.3537
     20 C          -4.1138   -0.2134    0.1291 C.ar    1  UNL1        0.0264
     21 C          -4.2497    0.8521    1.0567 C.ar    1  UNL1       -0.0504
     22 C          -5.4875    1.3082    1.5730 C.ar    1  UNL1       -0.0590
     23 C          -6.7185    0.7453    1.2146 C.ar    1  UNL1       -0.0335
     24 C          -6.6675   -0.3242    0.2921 C.ar    1  UNL1        0.1005
     25 N          -7.7372   -0.9892   -0.1701 N.ar    1  UNL1       -0.1908
     26 S          -7.1592   -2.1382   -1.2141 S.2     1  UNL1        0.1165
     27 N          -5.5334   -1.8455   -1.1273 N.ar    1  UNL1       -0.1901
     28 C          -5.3477   -0.8241   -0.2700 C.ar    1  UNL1        0.1089
     29 H           2.4127    3.1031    2.3145 H       1  UNL1        0.1030
     30 H           0.0217    1.9752    1.5886 H       1  UNL1        0.0655
     31 H           5.5369    1.3292    0.4775 H       1  UNL1        0.0625
     32 H           7.9062    0.9861   -0.0563 H       1  UNL1        0.0633
     33 H           8.5421   -0.8152   -1.6660 H       1  UNL1        0.0829
     34 H           4.6362   -1.9205   -2.2196 H       1  UNL1        0.0836
     35 H          -0.5135   -2.3641   -2.0797 H       1  UNL1        0.0639
     36 H          -3.1652   -2.3355   -1.7873 H       1  UNL1        0.0639
     37 H          -1.5162    0.6715    0.6259 H       1  UNL1        0.1659
     38 H          -3.3644    1.3741    1.4150 H       1  UNL1        0.0625
     39 H          -5.4828    2.1363    2.2828 H       1  UNL1        0.0618
     40 H          -7.6592    1.1025    1.6161 H       1  UNL1        0.0640
@<TRIPOS>BOND
     1     1     2   ar
     2     2     3   ar
     3     3     4   ar
     4     4     5   ar
     5     5     6   ar
     6     6     7    1
     7     7     8   ar
     8     8     9   ar
     9     9    10   ar
    10    10    11   ar
    11    11    12   ar
    12     6    13   ar
    13    13    14   ar
    14     4    15    1
    15    15    16   ar
    16    16    17   ar
    17    17    18   ar
    18    18    19   ar
    19    18    20    1
    20    20    21   ar
    21    21    22   ar
    22    22    23   ar
    23    23    24   ar
    24    24    25   ar
    25    25    26   ar
    26    26    27   ar
    27    27    28   ar
    28    14     1   ar
    29    19    15   ar
    30    28    20   ar
    31    13     3   ar
    32    28    24   ar
    33    12     7   ar
    34     1    29    1
    35     2    30    1
    36     8    31    1
    37     9    32    1
    38    10    33    1
    39    12    34    1
    40    16    35    1
    41    17    36    1
    42    19    37    1
    43    21    38    1
    44    22    39    1
    45    23    40    1
