@<TRIPOS>MOLECULE
*****
 38 43 0 0 0
SMALL
GASTEIGER

@<TRIPOS>ATOM
      1 C           0.7792   -1.1744   -3.0421 C.ar    1  UNL1        0.0028
      2 C           2.1484   -1.1072   -2.7220 C.ar    1  UNL1       -0.0355
      3 C           2.2592   -0.5841   -1.4012 C.ar    1  UNL1        0.0151
      4 C           3.1878   -0.2516   -0.4666 C.ar    1  UNL1        0.0306
      5 S           2.2834    0.3383    0.9088 S.2     1  UNL1       -0.0849
      6 C           0.7233    0.1171    0.1825 C.ar    1  UNL1        0.0518
      7 C          -0.5043    0.4446    0.8658 C.ar    1  UNL1        0.0480
      8 C          -0.6579    0.9615    2.1420 C.ar    1  UNL1        0.0438
      9 N          -1.9539    1.1882    2.5655 N.ar    1  UNL1       -0.2460
     10 C          -2.8066    0.8484    1.6209 C.ar    1  UNL1        0.1189
     11 S          -2.0722    0.2445    0.1913 S.2     1  UNL1       -0.0660
     12 C          -4.2247    0.9821    1.7980 C.ar    1  UNL1        0.0871
     13 S          -4.9472    1.5992    3.2619 S.2     1  UNL1       -0.0903
     14 C          -6.5733    1.4353    2.6714 C.ar    1  UNL1       -0.0128
     15 C          -6.5018    0.9328    1.4223 C.ar    1  UNL1        0.0278
     16 C          -7.3490    0.5506    0.3722 C.ar    1  UNL1       -0.0156
     17 C          -6.4890    0.1081   -0.6395 C.ar    1  UNL1        0.0932
     18 O          -5.1472    0.1785   -0.3146 O.2     1  UNL1       -0.4617
     19 C          -5.2340    0.6873    0.9486 C.ar    1  UNL1        0.1515
     20 C           0.9331   -0.3877   -1.0570 C.ar    1  UNL1        0.0626
     21 N          -0.0083   -0.7206   -1.9941 N.ar    1  UNL1       -0.3597
     22 C           4.6630   -0.3091   -0.4469 C.ar    1  UNL1        0.0074
     23 C           5.4333    0.0964    0.6537 C.ar    1  UNL1       -0.0506
     24 C           6.8277    0.0216    0.6212 C.ar    1  UNL1       -0.0430
     25 C           7.4339   -0.4618   -0.5219 C.ar    1  UNL1        0.0276
     26 N           6.7478   -0.8650   -1.6072 N.ar    1  UNL1       -0.2626
     27 C           5.3923   -0.7781   -1.5400 C.ar    1  UNL1        0.0358
     28 H           0.3000   -1.5165   -3.9508 H       1  UNL1        0.0807
     29 H           2.9392   -1.4107   -3.3937 H       1  UNL1        0.0639
     30 H           0.1493    1.1987    2.8251 H       1  UNL1        0.0841
     31 H          -7.4250    1.7144    3.2754 H       1  UNL1        0.0701
     32 H          -8.4281    0.5788    0.3232 H       1  UNL1        0.0655
     33 H          -6.6791   -0.2801   -1.6319 H       1  UNL1        0.1030
     34 H          -1.0155   -0.6420   -1.9092 H       1  UNL1        0.1654
     35 H           4.9726    0.4789    1.5602 H       1  UNL1        0.0625
     36 H           7.4221    0.3352    1.4721 H       1  UNL1        0.0633
     37 H           8.5144   -0.5397   -0.5968 H       1  UNL1        0.0829
     38 H           4.9073   -1.1188   -2.4468 H       1  UNL1        0.0836
@<TRIPOS>BOND
     1     1     2   ar
     2     2     3   ar
     3     3     4   ar
     4     4     5   ar
     5     5     6   ar
     6     6     7    1
     7     7     8   ar
     8     8     9   ar
     9     9    10   ar
    10    10    11   ar
    11    10    12    1
    12    12    13   ar
    13    13    14   ar
    14    14    15   ar
    15    15    16   ar
    16    16    17   ar
    17    17    18   ar
    18    18    19   ar
    19     6    20   ar
    20    20    21   ar
    21     4    22    1
    22    22    23   ar
    23    23    24   ar
    24    24    25   ar
    25    25    26   ar
    26    26    27   ar
    27    21     1   ar
    28    27    22   ar
    29    20     3   ar
    30    11     7   ar
    31    19    12   ar
    32    19    15   ar
    33     1    28    1
    34     2    29    1
    35     8    30    1
    36    14    31    1
    37    16    32    1
    38    17    33    1
    39    21    34    1
    40    23    35    1
    41    24    36    1
    42    25    37    1
    43    27    38    1
