@<TRIPOS>MOLECULE
*****
 45 51 0 0 0
SMALL
GASTEIGER

@<TRIPOS>ATOM
      1 C           2.4880    2.8369   -1.7107 C.ar    1  UNL1        0.0028
      2 C           1.3471    2.0608   -1.4282 C.ar    1  UNL1       -0.0355
      3 C           1.7794    0.9161   -0.6998 C.ar    1  UNL1        0.0170
      4 C           1.3059   -0.2099   -0.1139 C.ar    1  UNL1        0.0541
      5 S           2.6844   -1.0351    0.5682 S.2     1  UNL1       -0.0833
      6 C           3.8329    0.1425    0.0165 C.ar    1  UNL1        0.0474
      7 C           5.2603   -0.0142    0.2363 C.ar    1  UNL1        0.0370
      8 C           5.9414   -1.2352    0.1117 C.ar    1  UNL1        0.0380
      9 N           7.2809   -1.4838    0.3005 N.ar    1  UNL1       -0.2604
     10 C           8.1292   -0.4797    0.6618 C.ar    1  UNL1        0.0557
     11 C           7.5926    0.8106    0.8357 C.ar    1  UNL1        0.1185
     12 N           8.2727    1.9140    1.1839 N.ar    1  UNL1       -0.1892
     13 S           7.1620    3.1408    1.2774 S.2     1  UNL1        0.1165
     14 N           5.7827    2.3407    0.8253 N.ar    1  UNL1       -0.1900
     15 C           6.1166    1.0522    0.6173 C.ar    1  UNL1        0.1110
     16 C           3.1443    1.1192   -0.6167 C.ar    1  UNL1        0.0622
     17 N           3.6407    2.2554   -1.1938 N.ar    1  UNL1       -0.3597
     18 C          -0.0221   -0.7536   -0.0001 C.ar    1  UNL1        0.1160
     19 N          -0.3046   -1.7695    0.7922 N.ar    1  UNL1       -0.2462
     20 C          -1.6466   -2.0852    0.7016 C.ar    1  UNL1        0.0432
     21 C          -2.3830   -1.3095   -0.1676 C.ar    1  UNL1        0.0400
     22 S          -1.3602   -0.1499   -0.9010 S.2     1  UNL1       -0.0667
     23 C          -3.8023   -1.3734   -0.5091 C.ar    1  UNL1       -0.0021
     24 C          -4.1828   -2.2219   -1.5633 C.ar    1  UNL1       -0.0529
     25 C          -5.5181   -2.3311   -1.9356 C.ar    1  UNL1       -0.0606
     26 C          -6.4878   -1.5952   -1.2571 C.ar    1  UNL1       -0.0540
     27 C          -6.1406   -0.7424   -0.1966 C.ar    1  UNL1       -0.0173
     28 C          -7.1352   -0.0090    0.4744 C.ar    1  UNL1       -0.0540
     29 C          -6.8130    0.8430    1.5312 C.ar    1  UNL1       -0.0612
     30 C          -5.4905    0.9723    1.9325 C.ar    1  UNL1       -0.0611
     31 C          -4.4898    0.2504    1.2757 C.ar    1  UNL1       -0.0534
     32 C          -4.7839   -0.6204    0.1969 C.ar    1  UNL1       -0.0096
     33 H           2.5675    3.7776   -2.2426 H       1  UNL1        0.0807
     34 H           0.3392    2.3197   -1.7251 H       1  UNL1        0.0639
     35 H           5.3920   -2.1326   -0.1805 H       1  UNL1        0.0836
     36 H           9.1743   -0.7242    0.7984 H       1  UNL1        0.0852
     37 H           4.6009    2.5823   -1.1848 H       1  UNL1        0.1654
     38 H          -2.0399   -2.8992    1.2985 H       1  UNL1        0.0841
     39 H          -3.4334   -2.8005   -2.1024 H       1  UNL1        0.0624
     40 H          -5.8041   -2.9870   -2.7549 H       1  UNL1        0.0618
     41 H          -7.5270   -1.6931   -1.5644 H       1  UNL1        0.0624
     42 H          -8.1778   -0.0962    0.1762 H       1  UNL1        0.0624
     43 H          -7.5952    1.4036    2.0385 H       1  UNL1        0.0618
     44 H          -5.2320    1.6351    2.7555 H       1  UNL1        0.0618
     45 H          -3.4654    0.3787    1.6190 H       1  UNL1        0.0624
@<TRIPOS>BOND
     1     1     2   ar
     2     2     3   ar
     3     3     4   ar
     4     4     5   ar
     5     5     6   ar
     6     6     7    1
     7     7     8   ar
     8     8     9   ar
     9     9    10   ar
    10    10    11   ar
    11    11    12   ar
    12    12    13   ar
    13    13    14   ar
    14    14    15   ar
    15     6    16   ar
    16    16    17   ar
    17     4    18    1
    18    18    19   ar
    19    19    20   ar
    20    20    21   ar
    21    21    22   ar
    22    21    23    1
    23    23    24   ar
    24    24    25   ar
    25    25    26   ar
    26    26    27   ar
    27    27    28   ar
    28    28    29   ar
    29    29    30   ar
    30    30    31   ar
    31    31    32   ar
    32    17     1   ar
    33    22    18   ar
    34    32    23   ar
    35    16     3   ar
    36    32    27   ar
    37    15     7   ar
    38    15    11   ar
    39     1    33    1
    40     2    34    1
    41     8    35    1
    42    10    36    1
    43    17    37    1
    44    20    38    1
    45    24    39    1
    46    25    40    1
    47    26    41    1
    48    28    42    1
    49    29    43    1
    50    30    44    1
    51    31    45    1
