@<TRIPOS>MOLECULE
*****
 41 47 0 0 0
SMALL
GASTEIGER

@<TRIPOS>ATOM
      1 C           3.0989    2.7714    1.1772 C.ar    1  UNL1        0.0932
      2 C           1.7370    2.4405    1.1361 C.ar    1  UNL1       -0.0150
      3 C           1.6467    1.3775    0.2167 C.ar    1  UNL1        0.0356
      4 C           0.7352    0.5422   -0.3377 C.ar    1  UNL1        0.0322
      5 S           1.5918   -0.4995   -1.4502 S.2     1  UNL1       -0.0837
      6 C           3.1288    0.1939   -1.0832 C.ar    1  UNL1        0.0663
      7 C           4.3660   -0.2657   -1.6486 C.ar    1  UNL1        0.0385
      8 C           4.8159    0.0452   -2.9316 C.ar    1  UNL1        0.0381
      9 N           5.9855   -0.3653   -3.5276 N.ar    1  UNL1       -0.2604
     10 C           6.8636   -1.1757   -2.8554 C.ar    1  UNL1        0.0557
     11 C           6.5377   -1.5769   -1.5330 C.ar    1  UNL1        0.1185
     12 N           7.2734   -2.3597   -0.7258 N.ar    1  UNL1       -0.1892
     13 S           6.4175   -2.4936    0.6797 S.2     1  UNL1        0.1165
     14 N           5.0771   -1.5850    0.3334 N.ar    1  UNL1       -0.1900
     15 C           5.2475   -1.1060   -0.9139 C.ar    1  UNL1        0.1111
     16 C           2.9451    1.1874   -0.1921 C.ar    1  UNL1        0.1502
     17 O           3.8955    2.0007    0.3488 O.2     1  UNL1       -0.4617
     18 C          -0.6945    0.3848   -0.1096 C.ar    1  UNL1        0.0075
     19 C          -1.1916    0.2049    1.1894 C.ar    1  UNL1       -0.0500
     20 C          -2.5621    0.0422    1.3905 C.ar    1  UNL1       -0.0350
     21 C          -3.4222    0.0785    0.2865 C.ar    1  UNL1        0.0746
     22 N          -2.9676    0.2875   -0.9803 N.ar    1  UNL1       -0.2542
     23 C          -1.6253    0.4161   -1.1524 C.ar    1  UNL1        0.0365
     24 C          -4.8624   -0.0597    0.4218 C.ar    1  UNL1        0.0466
     25 C          -5.7921    0.8257   -0.1632 C.ar    1  UNL1        0.0389
     26 N          -7.1642    0.7992   -0.0405 N.ar    1  UNL1       -0.2603
     27 C          -7.7850   -0.1795    0.6845 C.ar    1  UNL1        0.0557
     28 C          -6.9816   -1.1669    1.3021 C.ar    1  UNL1        0.1185
     29 N          -7.4104   -2.2127    2.0447 N.ar    1  UNL1       -0.1892
     30 S          -6.0588   -3.0923    2.4551 S.2     1  UNL1        0.1165
     31 N          -4.8664   -2.1252    1.8207 N.ar    1  UNL1       -0.1900
     32 C          -5.4797   -1.1014    1.1678 C.ar    1  UNL1        0.1119
     33 H           3.6482    3.5209    1.7398 H       1  UNL1        0.1030
     34 H           0.9498    2.9184    1.7025 H       1  UNL1        0.0655
     35 H           4.2120    0.6749   -3.5700 H       1  UNL1        0.0836
     36 H           7.7690   -1.4729   -3.3700 H       1  UNL1        0.0852
     37 H          -0.5210    0.1720    2.0512 H       1  UNL1        0.0625
     38 H          -2.9473   -0.1026    2.4061 H       1  UNL1        0.0639
     39 H          -1.3161    0.5536   -2.1938 H       1  UNL1        0.0836
     40 H          -5.4283    1.6614   -0.7740 H       1  UNL1        0.0837
     41 H          -8.8656   -0.1584    0.7490 H       1  UNL1        0.0852
@<TRIPOS>BOND
     1     1     2   ar
     2     2     3   ar
     3     3     4   ar
     4     4     5   ar
     5     5     6   ar
     6     6     7    1
     7     7     8   ar
     8     8     9   ar
     9     9    10   ar
    10    10    11   ar
    11    11    12   ar
    12    12    13   ar
    13    13    14   ar
    14    14    15   ar
    15     6    16   ar
    16    16    17   ar
    17     4    18    1
    18    18    19   ar
    19    19    20   ar
    20    20    21   ar
    21    21    22   ar
    22    22    23   ar
    23    21    24    1
    24    24    25   ar
    25    25    26   ar
    26    26    27   ar
    27    27    28   ar
    28    28    29   ar
    29    29    30   ar
    30    30    31   ar
    31    31    32   ar
    32    17     1   ar
    33    23    18   ar
    34    32    24   ar
    35    16     3   ar
    36    32    28   ar
    37    15     7   ar
    38    15    11   ar
    39     1    33    1
    40     2    34    1
    41     8    35    1
    42    10    36    1
    43    19    37    1
    44    20    38    1
    45    23    39    1
    46    25    40    1
    47    27    41    1
