@<TRIPOS>MOLECULE
*****
 43 49 0 0 0
SMALL
GASTEIGER

@<TRIPOS>ATOM
      1 C           2.2260    2.0479   -1.9881 C.ar    1  UNL1        0.0028
      2 C           3.4140    1.5691   -1.4023 C.ar    1  UNL1       -0.0355
      3 C           3.0434    0.6075   -0.4273 C.ar    1  UNL1        0.0152
      4 C           3.5974   -0.2148    0.4920 C.ar    1  UNL1        0.0327
      5 S           2.2849   -1.0372    1.2829 S.2     1  UNL1       -0.0833
      6 C           1.0450   -0.2501    0.3428 C.ar    1  UNL1        0.0687
      7 C          -0.3538   -0.5297    0.5415 C.ar    1  UNL1        0.1173
      8 N          -0.7829   -1.2356    1.5705 N.ar    1  UNL1       -0.2461
      9 C          -2.1577   -1.3631    1.5250 C.ar    1  UNL1        0.0432
     10 C          -2.7788   -0.7462    0.4611 C.ar    1  UNL1        0.0400
     11 S          -1.5984   -0.0004   -0.5270 S.2     1  UNL1       -0.0666
     12 C          -4.1776   -0.6985    0.1093 C.ar    1  UNL1       -0.0007
     13 C          -4.9095   -1.7907   -0.4166 C.ar    1  UNL1       -0.0528
     14 C          -6.3085   -1.7295   -0.7525 C.ar    1  UNL1       -0.0605
     15 C          -7.1175   -0.5796   -0.5914 C.ar    1  UNL1       -0.0526
     16 C          -6.3772    0.4710   -0.0643 C.ar    1  UNL1        0.0000
     17 C          -6.8521    1.7221    0.2308 C.ar    1  UNL1        0.0094
     18 N          -5.7928    2.4411    0.7447 N.ar    1  UNL1       -0.3659
     19 C          -4.6545    1.6605    0.7782 C.ar    1  UNL1        0.0100
     20 C          -4.9900    0.4281    0.2712 C.ar    1  UNL1        0.0076
     21 C           1.6655    0.5986   -0.5136 C.ar    1  UNL1        0.0641
     22 N           1.1031    1.4415   -1.4346 N.ar    1  UNL1       -0.3597
     23 C           4.9727   -0.4768    0.8737 C.ar    1  UNL1        0.0356
     24 C           5.4353   -0.5322    2.1948 C.ar    1  UNL1        0.0380
     25 N           6.7191   -0.7645    2.6298 N.ar    1  UNL1       -0.2604
     26 C           7.7266   -0.9809    1.7361 C.ar    1  UNL1        0.0557
     27 C           7.4133   -0.9589    0.3628 C.ar    1  UNL1        0.1185
     28 N           8.2707   -1.1519   -0.6527 N.ar    1  UNL1       -0.1892
     29 S           7.3786   -1.0339   -2.0462 S.2     1  UNL1        0.1165
     30 N           5.8743   -0.7259   -1.4249 N.ar    1  UNL1       -0.1900
     31 C           5.9942   -0.6992   -0.0842 C.ar    1  UNL1        0.1110
     32 H           2.0928    2.7837   -2.7710 H       1  UNL1        0.0807
     33 H           4.4138    1.8876   -1.6676 H       1  UNL1        0.0639
     34 H          -2.6622   -1.9205    2.3053 H       1  UNL1        0.0841
     35 H          -4.3917   -2.7355   -0.5866 H       1  UNL1        0.0624
     36 H          -6.7726   -2.6304   -1.1563 H       1  UNL1        0.0618
     37 H          -8.1673   -0.5478   -0.8447 H       1  UNL1        0.0624
     38 H          -7.8305    2.1728    0.1345 H       1  UNL1        0.0813
     39 H          -5.8444    3.4014    1.0593 H       1  UNL1        0.1648
     40 H          -3.7272    2.0634    1.1625 H       1  UNL1        0.0813
     41 H           0.1188    1.5668   -1.6415 H       1  UNL1        0.1654
     42 H           4.7379   -0.3686    3.0177 H       1  UNL1        0.0836
     43 H           8.7196   -1.1607    2.1260 H       1  UNL1        0.0852
@<TRIPOS>BOND
     1     1     2   ar
     2     2     3   ar
     3     3     4   ar
     4     4     5   ar
     5     5     6   ar
     6     6     7    1
     7     7     8   ar
     8     8     9   ar
     9     9    10   ar
    10    10    11   ar
    11    10    12    1
    12    12    13   ar
    13    13    14   ar
    14    14    15   ar
    15    15    16   ar
    16    16    17   ar
    17    17    18   ar
    18    18    19   ar
    19    19    20   ar
    20     6    21   ar
    21    21    22   ar
    22     4    23    1
    23    23    24   ar
    24    24    25   ar
    25    25    26   ar
    26    26    27   ar
    27    27    28   ar
    28    28    29   ar
    29    29    30   ar
    30    30    31   ar
    31    22     1   ar
    32    31    23   ar
    33    21     3   ar
    34    31    27   ar
    35    11     7   ar
    36    20    12   ar
    37    20    16   ar
    38     1    32    1
    39     2    33    1
    40     9    34    1
    41    13    35    1
    42    14    36    1
    43    15    37    1
    44    17    38    1
    45    18    39    1
    46    19    40    1
    47    22    41    1
    48    24    42    1
    49    26    43    1
