@<TRIPOS>MOLECULE
*****
 44 50 0 0 0
SMALL
GASTEIGER

@<TRIPOS>ATOM
      1 C           3.1394   -2.6423    2.0344 C.ar    1  UNL1        0.0028
      2 C           1.9037   -2.0872    1.6407 C.ar    1  UNL1       -0.0355
      3 C           2.1764   -1.1334    0.6250 C.ar    1  UNL1        0.0152
      4 C           1.5525   -0.2568   -0.1935 C.ar    1  UNL1        0.0298
      5 S           2.7835    0.4893   -1.1725 S.2     1  UNL1       -0.0824
      6 C           4.0863   -0.3965   -0.4369 C.ar    1  UNL1        0.0808
      7 C           5.4850   -0.2389   -0.8154 C.ar    1  UNL1        0.1715
      8 N           5.7689    0.6391   -1.7798 N.ar    1  UNL1       -0.2154
      9 C           7.0610    0.7332   -2.0743 C.ar    1  UNL1        0.1201
     10 N           8.0454    0.0447   -1.5021 N.ar    1  UNL1       -0.2241
     11 C           7.6382   -0.7979   -0.5568 C.ar    1  UNL1        0.1201
     12 N           6.3814   -0.9905   -0.1634 N.ar    1  UNL1       -0.2154
     13 C           3.5459   -1.2128    0.4982 C.ar    1  UNL1        0.0651
     14 N           4.1971   -2.0957    1.3143 N.ar    1  UNL1       -0.3597
     15 C           0.1603    0.1045   -0.3543 C.ar    1  UNL1       -0.0015
     16 C          -0.5494    0.0534   -1.5815 C.ar    1  UNL1       -0.0523
     17 C          -1.9382    0.3968   -1.7249 C.ar    1  UNL1       -0.0523
     18 C          -2.7600    0.8245   -0.6543 C.ar    1  UNL1       -0.0011
     19 C          -4.1535    1.1697   -0.7834 C.ar    1  UNL1        0.0342
     20 S          -4.6741    2.5739   -1.6333 S.2     1  UNL1       -0.0949
     21 C          -6.3410    2.2575   -1.3270 C.ar    1  UNL1       -0.0155
     22 C          -6.4228    1.1101   -0.6169 C.ar    1  UNL1       -0.0032
     23 C          -7.5089    0.3651   -0.0986 C.ar    1  UNL1       -0.0465
     24 C          -7.0903   -0.7886    0.5747 C.ar    1  UNL1       -0.0231
     25 S          -5.3546   -1.0709    0.6370 S.2     1  UNL1       -0.0955
     26 C          -5.2247    0.4703   -0.2974 C.ar    1  UNL1        0.0341
     27 C          -2.0483    0.8826    0.5500 C.ar    1  UNL1        0.0082
     28 C          -2.5061    1.2877    1.7811 C.ar    1  UNL1        0.0100
     29 N          -1.4497    1.1986    2.6607 N.ar    1  UNL1       -0.3659
     30 C          -0.3204    0.7561    2.0073 C.ar    1  UNL1        0.0100
     31 C          -0.6625    0.5399    0.6933 C.ar    1  UNL1        0.0082
     32 H           3.3480   -3.3994    2.7794 H       1  UNL1        0.0807
     33 H           0.9369   -2.3536    2.0476 H       1  UNL1        0.0639
     34 H           7.3379    1.4357   -2.8531 H       1  UNL1        0.1048
     35 H           8.4051   -1.3830   -0.0603 H       1  UNL1        0.1048
     36 H           5.1967   -2.2708    1.3430 H       1  UNL1        0.1654
     37 H          -0.0210   -0.2751   -2.4773 H       1  UNL1        0.0624
     38 H          -2.3768    0.3135   -2.7199 H       1  UNL1        0.0624
     39 H          -7.1184    2.9167   -1.6863 H       1  UNL1        0.0700
     40 H          -8.5537    0.6322   -0.1996 H       1  UNL1        0.0629
     41 H          -7.7225   -1.5221    1.0562 H       1  UNL1        0.0694
     42 H          -3.4731    1.6344    2.1197 H       1  UNL1        0.0813
     43 H          -1.4924    1.4389    3.6425 H       1  UNL1        0.1648
     44 H           0.6127    0.6472    2.5435 H       1  UNL1        0.0813
@<TRIPOS>BOND
     1     1     2   ar
     2     2     3   ar
     3     3     4   ar
     4     4     5   ar
     5     5     6   ar
     6     6     7    1
     7     7     8   ar
     8     8     9   ar
     9     9    10   ar
    10    10    11   ar
    11    11    12   ar
    12     6    13   ar
    13    13    14   ar
    14     4    15    1
    15    15    16   ar
    16    16    17   ar
    17    17    18   ar
    18    18    19    1
    19    19    20   ar
    20    20    21   ar
    21    21    22   ar
    22    22    23   ar
    23    23    24   ar
    24    24    25   ar
    25    25    26   ar
    26    18    27   ar
    27    27    28   ar
    28    28    29   ar
    29    29    30   ar
    30    30    31   ar
    31    14     1   ar
    32    31    15   ar
    33    13     3   ar
    34    26    19   ar
    35    31    27   ar
    36    12     7   ar
    37    26    22   ar
    38     1    32    1
    39     2    33    1
    40     9    34    1
    41    11    35    1
    42    14    36    1
    43    16    37    1
    44    17    38    1
    45    21    39    1
    46    23    40    1
    47    24    41    1
    48    28    42    1
    49    29    43    1
    50    30    44    1
