@<TRIPOS>MOLECULE
*****
 39 44 0 0 0
SMALL
GASTEIGER

@<TRIPOS>ATOM
      1 C          -2.5581   -2.3530   -2.6711 C.ar    1  UNL1       -0.0231
      2 C          -1.4526   -1.7455   -2.0689 C.ar    1  UNL1       -0.0459
      3 C          -1.8218   -0.8132   -1.0649 C.ar    1  UNL1        0.0047
      4 C          -1.1084   -0.0163   -0.2332 C.ar    1  UNL1        0.0288
      5 S          -2.2281    0.8689    0.7278 S.2     1  UNL1       -0.0834
      6 C          -3.6104    0.1428   -0.0144 C.ar    1  UNL1        0.0712
      7 C          -4.9696    0.4918    0.3687 C.ar    1  UNL1        0.1706
      8 N          -5.9115    0.4176   -0.5725 N.ar    1  UNL1       -0.2154
      9 C          -7.1273    0.7579   -0.1570 C.ar    1  UNL1        0.1201
     10 N          -7.4528    1.1545    1.0708 N.ar    1  UNL1       -0.2241
     11 C          -6.4259    1.1938    1.9161 C.ar    1  UNL1        0.1201
     12 N          -5.1663    0.8787    1.6317 N.ar    1  UNL1       -0.2154
     13 C          -3.2151   -0.7568   -0.9712 C.ar    1  UNL1        0.0377
     14 S          -4.1352   -1.8551   -2.0831 S.2     1  UNL1       -0.0954
     15 C           0.3174    0.1719   -0.0600 C.ar    1  UNL1       -0.0024
     16 C           0.9886    1.3684   -0.3826 C.ar    1  UNL1       -0.0522
     17 C           2.3998    1.5454   -0.2350 C.ar    1  UNL1       -0.0498
     18 C           3.3110    0.5552    0.2433 C.ar    1  UNL1        0.0274
     19 C           4.7511    0.7983    0.3550 C.ar    1  UNL1        0.1636
     20 N           5.5923   -0.2291    0.2098 N.ar    1  UNL1       -0.2160
     21 C           6.8826    0.0881    0.2878 C.ar    1  UNL1        0.1200
     22 N           7.3801    1.3042    0.4893 N.ar    1  UNL1       -0.2241
     23 C           6.4524    2.2484    0.6103 C.ar    1  UNL1        0.1200
     24 N           5.1358    2.0661    0.5460 N.ar    1  UNL1       -0.2160
     25 C           2.6252   -0.6358    0.5801 C.ar    1  UNL1        0.0004
     26 C           3.2124   -1.7583    1.1216 C.ar    1  UNL1       -0.0159
     27 S           2.0796   -3.0112    1.4246 S.2     1  UNL1       -0.1038
     28 C           0.7716   -2.0592    0.8615 C.ar    1  UNL1       -0.0160
     29 C           1.1859   -0.8177    0.4332 C.ar    1  UNL1       -0.0020
     30 H          -2.5386   -3.0957   -3.4573 H       1  UNL1        0.0694
     31 H          -0.4339   -1.9811   -2.3541 H       1  UNL1        0.0629
     32 H          -7.9281    0.7083   -0.8870 H       1  UNL1        0.1048
     33 H          -6.6360    1.5126    2.9314 H       1  UNL1        0.1048
     34 H           0.4123    2.2084   -0.7730 H       1  UNL1        0.0624
     35 H           2.8048    2.5191   -0.5228 H       1  UNL1        0.0625
     36 H           7.5950   -0.7223    0.1760 H       1  UNL1        0.1048
     37 H           6.8006    3.2625    0.7745 H       1  UNL1        0.1048
     38 H           4.2482   -1.9389    1.3703 H       1  UNL1        0.0700
     39 H          -0.2269   -2.4735    0.8890 H       1  UNL1        0.0700
@<TRIPOS>BOND
     1     1     2   ar
     2     2     3   ar
     3     3     4   ar
     4     4     5   ar
     5     5     6   ar
     6     6     7    1
     7     7     8   ar
     8     8     9   ar
     9     9    10   ar
    10    10    11   ar
    11    11    12   ar
    12     6    13   ar
    13    13    14   ar
    14     4    15    1
    15    15    16   ar
    16    16    17   ar
    17    17    18   ar
    18    18    19    1
    19    19    20   ar
    20    20    21   ar
    21    21    22   ar
    22    22    23   ar
    23    23    24   ar
    24    18    25   ar
    25    25    26   ar
    26    26    27   ar
    27    27    28   ar
    28    28    29   ar
    29    14     1   ar
    30    29    15   ar
    31    13     3   ar
    32    24    19   ar
    33    29    25   ar
    34    12     7   ar
    35     1    30    1
    36     2    31    1
    37     9    32    1
    38    11    33    1
    39    16    34    1
    40    17    35    1
    41    21    36    1
    42    23    37    1
    43    26    38    1
    44    28    39    1
