@<TRIPOS>MOLECULE
*****
 40 46 0 0 0
SMALL
GASTEIGER

@<TRIPOS>ATOM
      1 SI         -1.8295    3.8408   -1.1267 Si      1  UNL1        0.0000
      2 C          -0.4202    2.6958   -0.7463 C.2     1  UNL1        0.0000
      3 C          -0.8640    1.4642   -0.4315 C.ar    1  UNL1        0.0000
      4 C          -0.0748    0.3419   -0.0871 C.ar    1  UNL1        0.0000
      5 C           1.3052    0.1701    0.0264 C.ar    1  UNL1        0.0000
      6 O           2.4429    0.8927   -0.1161 O.2     1  UNL1        0.0000
      7 C           3.4763    0.0197    0.1721 C.ar    1  UNL1        0.0000
      8 C           2.9810   -1.2390    0.4919 C.ar    1  UNL1        0.0000
      9 C           1.5848   -1.0943    0.3851 C.ar    1  UNL1        0.0000
     10 N           0.3939   -1.7675    0.5115 N.ar    1  UNL1        0.0000
     11 C          -0.6384   -0.8943    0.2232 C.ar    1  UNL1        0.0000
     12 C          -2.0887   -1.1303    0.2177 C.ar    1  UNL1        0.0000
     13 C          -2.7836   -2.3245    0.5102 C.ar    1  UNL1        0.0000
     14 C          -2.2432   -3.5382    0.8672 C.ar    1  UNL1        0.0000
     15 S          -3.4386   -4.7483    1.1399 S.2     1  UNL1        0.0000
     16 C          -4.7137   -3.6644    0.7829 C.ar    1  UNL1        0.0000
     17 C          -4.2314   -2.4184    0.4661 C.ar    1  UNL1        0.0000
     18 C          -5.0962   -1.3777    0.1405 C.ar    1  UNL1        0.0000
     19 C          -4.4082   -0.1828   -0.1525 C.ar    1  UNL1        0.0000
     20 C          -2.9773   -0.0360   -0.1237 C.ar    1  UNL1        0.0000
     21 C          -2.3443    1.2900   -0.4552 C.ar    1  UNL1        0.0000
     22 C          -3.0065    2.4191   -0.7953 C.2     1  UNL1        0.0000
     23 C           4.8492    0.4622    0.1175 C.ar    1  UNL1        0.0000
     24 C           5.2819    1.7344   -0.2089 C.ar    1  UNL1        0.0000
     25 C           6.7014    1.8603   -0.1749 C.ar    1  UNL1        0.0000
     26 C           7.3115    0.6782    0.1772 C.ar    1  UNL1        0.0000
     27 S           6.1762   -0.5677    0.4625 S.2     1  UNL1        0.0000
     28 H          -1.9786    4.9287   -0.1303 H       1  UNL1        0.0000
     29 H          -1.8623    4.2694   -2.5458 H       1  UNL1        0.0000
     30 H           0.6078    3.0209   -0.7855 H       1  UNL1        0.0000
     31 H           3.5480   -2.1181    0.7592 H       1  UNL1        0.0000
     32 H           0.3523   -2.7401    0.7751 H       1  UNL1        0.0000
     33 H          -1.2221   -3.8433    0.9995 H       1  UNL1        0.0000
     34 H          -5.7397   -4.0039    0.8261 H       1  UNL1        0.0000
     35 H          -6.1758   -1.4485    0.1078 H       1  UNL1        0.0000
     36 H          -5.0266    0.6733   -0.4159 H       1  UNL1        0.0000
     37 H          -4.0666    2.5792   -0.8900 H       1  UNL1        0.0000
     38 H           4.6039    2.5415   -0.4618 H       1  UNL1        0.0000
     39 H           7.2439    2.7710   -0.3972 H       1  UNL1        0.0000
     40 H           8.3702    0.4839    0.2812 H       1  UNL1        0.0000
@<TRIPOS>BOND
     1     1     2    1
     2     2     3    2
     3     3     4   ar
     4     4     5   ar
     5     5     6   ar
     6     6     7   ar
     7     7     8   ar
     8     8     9   ar
     9     9    10   ar
    10    10    11   ar
    11    11    12   ar
    12    12    13   ar
    13    13    14   ar
    14    14    15   ar
    15    15    16   ar
    16    16    17   ar
    17    17    18   ar
    18    18    19   ar
    19    19    20   ar
    20    20    21   ar
    21    21    22    2
    22     7    23    1
    23    23    24   ar
    24    24    25   ar
    25    25    26   ar
    26    26    27   ar
    27    22     1    1
    28    27    23   ar
    29    21     3   ar
    30    11     4   ar
    31    20    12   ar
    32     9     5   ar
    33    17    13   ar
    34     1    28    1
    35     1    29    1
    36     2    30    1
    37     8    31    1
    38    10    32    1
    39    14    33    1
    40    16    34    1
    41    18    35    1
    42    19    36    1
    43    22    37    1
    44    24    38    1
    45    25    39    1
    46    26    40    1
