@<TRIPOS>MOLECULE
*****
 43 49 0 0 0
SMALL
GASTEIGER

@<TRIPOS>ATOM
      1 C           3.6406    2.8186   -1.7092 C.ar    1  UNL1       -0.0231
      2 C           4.5167    1.9591   -1.0384 C.ar    1  UNL1       -0.0458
      3 C           3.8543    0.8628   -0.4172 C.ar    1  UNL1        0.0076
      4 C           4.2717   -0.1967    0.3285 C.ar    1  UNL1        0.0652
      5 S           2.8533   -1.1091    0.7384 S.2     1  UNL1       -0.0828
      6 C           1.7902   -0.0567   -0.1013 C.ar    1  UNL1        0.0420
      7 C           0.3826   -0.2625   -0.1710 C.ar    1  UNL1        0.0419
      8 S          -0.6693   -0.0399    1.1726 S.2     1  UNL1       -0.0859
      9 C          -2.0818   -0.4452    0.2678 C.ar    1  UNL1        0.0288
     10 C          -3.3851   -0.4212    0.8949 C.ar    1  UNL1       -0.0016
     11 C          -3.7643   -1.2084    2.0114 C.ar    1  UNL1       -0.0529
     12 C          -5.0742   -1.1794    2.6092 C.ar    1  UNL1       -0.0605
     13 C          -6.1375   -0.3633    2.1581 C.ar    1  UNL1       -0.0526
     14 C          -5.7396    0.4011    1.0692 C.ar    1  UNL1        0.0000
     15 C          -6.5168    1.3095    0.3991 C.ar    1  UNL1        0.0094
     16 N          -5.7288    1.8547   -0.5927 N.ar    1  UNL1       -0.3659
     17 C          -4.4648    1.3019   -0.5588 C.ar    1  UNL1        0.0100
     18 C          -4.4460    0.3828    0.4632 C.ar    1  UNL1        0.0076
     19 C          -1.6868   -0.7479   -0.9939 C.ar    1  UNL1        0.0046
     20 C          -2.3727   -1.1763   -2.1611 C.ar    1  UNL1       -0.0459
     21 C          -1.5147   -1.3759   -3.2479 C.ar    1  UNL1       -0.0231
     22 S           0.1924   -1.0755   -2.9581 S.2     1  UNL1       -0.0955
     23 C          -0.3224   -0.6582   -1.2751 C.ar    1  UNL1        0.0352
     24 C           2.4845    0.9726   -0.6726 C.ar    1  UNL1        0.0353
     25 S           1.9400    2.3925   -1.6541 S.2     1  UNL1       -0.0955
     26 C           5.5992   -0.6179    0.7799 C.ar    1  UNL1        0.1701
     27 N           5.6864   -1.7234    1.5236 N.ar    1  UNL1       -0.2154
     28 C           6.9228   -2.0405    1.8934 C.ar    1  UNL1        0.1201
     29 N           8.0276   -1.3646    1.5895 N.ar    1  UNL1       -0.2241
     30 C           7.8115   -0.2832    0.8455 C.ar    1  UNL1        0.1201
     31 N           6.6306    0.1449    0.4087 N.ar    1  UNL1       -0.2154
     32 H           3.9063    3.7150   -2.2529 H       1  UNL1        0.0694
     33 H           5.5854    2.1355   -1.0101 H       1  UNL1        0.0629
     34 H          -3.0290   -1.8852    2.4481 H       1  UNL1        0.0624
     35 H          -5.2539   -1.8302    3.4658 H       1  UNL1        0.0618
     36 H          -7.1151   -0.3479    2.6176 H       1  UNL1        0.0624
     37 H          -7.5413    1.6301    0.5297 H       1  UNL1        0.0813
     38 H          -6.0295    2.5679   -1.2443 H       1  UNL1        0.1648
     39 H          -3.7082    1.6265   -1.2604 H       1  UNL1        0.0813
     40 H          -3.4422   -1.3386   -2.2253 H       1  UNL1        0.0629
     41 H          -1.7949   -1.6989   -4.2413 H       1  UNL1        0.0694
     42 H           7.0417   -2.9330    2.4984 H       1  UNL1        0.1048
     43 H           8.6806    0.3044    0.5696 H       1  UNL1        0.1048
@<TRIPOS>BOND
     1     1     2   ar
     2     2     3   ar
     3     3     4   ar
     4     4     5   ar
     5     5     6   ar
     6     6     7    1
     7     7     8   ar
     8     8     9   ar
     9     9    10    1
    10    10    11   ar
    11    11    12   ar
    12    12    13   ar
    13    13    14   ar
    14    14    15   ar
    15    15    16   ar
    16    16    17   ar
    17    17    18   ar
    18     9    19   ar
    19    19    20   ar
    20    20    21   ar
    21    21    22   ar
    22    22    23   ar
    23     6    24   ar
    24    24    25   ar
    25     4    26    1
    26    26    27   ar
    27    27    28   ar
    28    28    29   ar
    29    29    30   ar
    30    30    31   ar
    31    25     1   ar
    32    31    26   ar
    33    24     3   ar
    34    23     7   ar
    35    18    10   ar
    36    23    19   ar
    37    18    14   ar
    38     1    32    1
    39     2    33    1
    40    11    34    1
    41    12    35    1
    42    13    36    1
    43    15    37    1
    44    16    38    1
    45    17    39    1
    46    20    40    1
    47    21    41    1
    48    28    42    1
    49    30    43    1
