@<TRIPOS>MOLECULE
*****
 39 44 0 0 0
SMALL
GASTEIGER

@<TRIPOS>ATOM
      1 C           2.4980   -3.7558   -1.2356 C.ar    1  UNL1        0.0028
      2 C           1.1221   -3.4608   -1.2438 C.ar    1  UNL1       -0.0354
      3 C           0.9689   -2.1451   -0.7304 C.ar    1  UNL1        0.0180
      4 C           0.0141   -1.2314   -0.4519 C.ar    1  UNL1        0.0642
      5 S           0.8259    0.1607    0.1808 S.2     1  UNL1       -0.0819
      6 C           2.4258   -0.5160    0.0566 C.ar    1  UNL1        0.0515
      7 C           3.6419    0.1741    0.4451 C.ar    1  UNL1        0.0422
      8 S           5.2223   -0.5509    0.2996 S.2     1  UNL1       -0.0943
      9 C           6.0501    0.8095    0.9212 C.ar    1  UNL1       -0.0155
     10 C           5.1293    1.7492    1.2134 C.ar    1  UNL1       -0.0032
     11 C           5.2576    3.0517    1.7475 C.ar    1  UNL1       -0.0465
     12 C           4.0256    3.6921    1.8912 C.ar    1  UNL1       -0.0231
     13 S           2.6159    2.7781    1.3951 S.2     1  UNL1       -0.0955
     14 C           3.7854    1.4462    0.9685 C.ar    1  UNL1        0.0346
     15 C           2.2714   -1.7673   -0.4592 C.ar    1  UNL1        0.0627
     16 N           3.2422   -2.6923   -0.7407 N.ar    1  UNL1       -0.3597
     17 C          -1.4120   -1.2709   -0.5988 C.ar    1  UNL1        0.1429
     18 C          -2.2207   -2.2868   -1.0805 C.ar    1  UNL1       -0.0147
     19 C          -3.5615   -1.8302   -1.0207 C.ar    1  UNL1       -0.0152
     20 C          -3.5184   -0.5529   -0.5045 C.ar    1  UNL1        0.1372
     21 O          -2.2210   -0.2172   -0.2507 O.2     1  UNL1       -0.4542
     22 C          -4.5172    0.4605   -0.1900 C.ar    1  UNL1        0.0353
     23 C          -4.1704    1.7073    0.3418 C.ar    1  UNL1       -0.0482
     24 C          -5.1582    2.6489    0.6286 C.ar    1  UNL1       -0.0429
     25 C          -6.4772    2.3158    0.3738 C.ar    1  UNL1        0.0276
     26 N          -6.8620    1.1283   -0.1378 N.ar    1  UNL1       -0.2626
     27 C          -5.8753    0.2351   -0.4053 C.ar    1  UNL1        0.0382
     28 H           3.0125   -4.6555   -1.5490 H       1  UNL1        0.0807
     29 H           0.3498   -4.1360   -1.5855 H       1  UNL1        0.0639
     30 H           7.1257    0.8289    1.0278 H       1  UNL1        0.0700
     31 H           6.1924    3.5247    2.0231 H       1  UNL1        0.0629
     32 H           3.8558    4.6889    2.2753 H       1  UNL1        0.0694
     33 H           4.2418   -2.5897   -0.6078 H       1  UNL1        0.1654
     34 H          -1.8881   -3.2507   -1.4364 H       1  UNL1        0.0656
     35 H          -4.4451   -2.3755   -1.3206 H       1  UNL1        0.0656
     36 H          -3.1293    1.9555    0.5371 H       1  UNL1        0.0626
     37 H          -4.9006    3.6179    1.0409 H       1  UNL1        0.0633
     38 H          -7.2819    3.0155    0.5803 H       1  UNL1        0.0829
     39 H          -6.2358   -0.7041   -0.8151 H       1  UNL1        0.0837
@<TRIPOS>BOND
     1     1     2   ar
     2     2     3   ar
     3     3     4   ar
     4     4     5   ar
     5     5     6   ar
     6     6     7    1
     7     7     8   ar
     8     8     9   ar
     9     9    10   ar
    10    10    11   ar
    11    11    12   ar
    12    12    13   ar
    13    13    14   ar
    14     6    15   ar
    15    15    16   ar
    16     4    17    1
    17    17    18   ar
    18    18    19   ar
    19    19    20   ar
    20    20    21   ar
    21    20    22    1
    22    22    23   ar
    23    23    24   ar
    24    24    25   ar
    25    25    26   ar
    26    26    27   ar
    27    16     1   ar
    28    21    17   ar
    29    27    22   ar
    30    15     3   ar
    31    14     7   ar
    32    14    10   ar
    33     1    28    1
    34     2    29    1
    35     9    30    1
    36    11    31    1
    37    12    32    1
    38    16    33    1
    39    18    34    1
    40    19    35    1
    41    23    36    1
    42    24    37    1
    43    25    38    1
    44    27    39    1
