@<TRIPOS>MOLECULE
*****
 39 44 0 0 0
SMALL
GASTEIGER

@<TRIPOS>ATOM
      1 C          -1.8118   -2.8330    0.3909 C.ar    1  UNL1        0.0028
      2 C          -0.5668   -2.1715    0.3827 C.ar    1  UNL1       -0.0355
      3 C          -0.7929   -0.8357   -0.0558 C.ar    1  UNL1        0.0156
      4 C          -0.1431    0.3273   -0.3144 C.ar    1  UNL1        0.0357
      5 S          -1.3615    1.4691   -0.8379 S.2     1  UNL1       -0.0845
      6 C          -2.6689    0.3514   -0.6744 C.ar    1  UNL1        0.0510
      7 C          -4.0361    0.6769   -0.9258 C.ar    1  UNL1        0.0387
      8 S          -4.5680    1.4133   -2.4157 S.2     1  UNL1       -0.0917
      9 C          -6.2364    1.4418   -1.9430 C.ar    1  UNL1        0.0192
     10 C          -6.3162    0.9138   -0.7089 C.ar    1  UNL1        0.1424
     11 O          -7.4465    0.7568    0.0313 O.2     1  UNL1       -0.4624
     12 C          -6.9006    0.1985    1.1730 C.ar    1  UNL1        0.0932
     13 C          -5.5117    0.0226    1.1185 C.ar    1  UNL1       -0.0150
     14 C          -5.1321    0.4993   -0.1507 C.ar    1  UNL1        0.0355
     15 C          -2.1595   -0.8271   -0.2540 C.ar    1  UNL1        0.0626
     16 N          -2.8390   -1.9913   -0.0204 N.ar    1  UNL1       -0.3597
     17 C           1.2533    0.6871   -0.2292 C.ar    1  UNL1        0.0271
     18 C           1.8042    1.9563   -0.2516 C.ar    1  UNL1       -0.0458
     19 C           3.2274    1.9484   -0.1538 C.ar    1  UNL1       -0.0463
     20 C           3.7451    0.6723   -0.0523 C.ar    1  UNL1        0.0214
     21 S           2.4907   -0.4938   -0.0930 S.2     1  UNL1       -0.0877
     22 C           5.1487    0.2580    0.0485 C.ar    1  UNL1        0.0068
     23 C           5.5751   -0.7553    0.9138 C.ar    1  UNL1       -0.0507
     24 C           6.9253   -1.0982    0.9782 C.ar    1  UNL1       -0.0430
     25 C           7.8184   -0.4112    0.1737 C.ar    1  UNL1        0.0276
     26 N           7.4561    0.5754   -0.6717 N.ar    1  UNL1       -0.2626
     27 C           6.1354    0.8829   -0.7135 C.ar    1  UNL1        0.0357
     28 H          -2.0452   -3.8564    0.6564 H       1  UNL1        0.0807
     29 H           0.3747   -2.6266    0.6600 H       1  UNL1        0.0639
     30 H          -7.0299    1.8295   -2.5648 H       1  UNL1        0.0731
     31 H          -7.6283   -0.0160    1.9453 H       1  UNL1        0.1030
     32 H          -4.8908   -0.3820    1.9055 H       1  UNL1        0.0655
     33 H          -3.8300   -2.1671   -0.1372 H       1  UNL1        0.1654
     34 H           1.2204    2.8657   -0.3307 H       1  UNL1        0.0629
     35 H           3.8352    2.8457   -0.1484 H       1  UNL1        0.0629
     36 H           4.8677   -1.2788    1.5519 H       1  UNL1        0.0625
     37 H           7.2705   -1.8813    1.6440 H       1  UNL1        0.0633
     38 H           8.8797   -0.6423    0.1897 H       1  UNL1        0.0829
     39 H           5.8875    1.6751   -1.4156 H       1  UNL1        0.0836
@<TRIPOS>BOND
     1     1     2   ar
     2     2     3   ar
     3     3     4   ar
     4     4     5   ar
     5     5     6   ar
     6     6     7    1
     7     7     8   ar
     8     8     9   ar
     9     9    10   ar
    10    10    11   ar
    11    11    12   ar
    12    12    13   ar
    13    13    14   ar
    14     6    15   ar
    15    15    16   ar
    16     4    17    1
    17    17    18   ar
    18    18    19   ar
    19    19    20   ar
    20    20    21   ar
    21    20    22    1
    22    22    23   ar
    23    23    24   ar
    24    24    25   ar
    25    25    26   ar
    26    26    27   ar
    27    16     1   ar
    28    21    17   ar
    29    27    22   ar
    30    15     3   ar
    31    14     7   ar
    32    14    10   ar
    33     1    28    1
    34     2    29    1
    35     9    30    1
    36    12    31    1
    37    13    32    1
    38    16    33    1
    39    18    34    1
    40    19    35    1
    41    23    36    1
    42    24    37    1
    43    25    38    1
    44    27    39    1
