@<TRIPOS>MOLECULE
*****
 38 43 0 0 0
SMALL
GASTEIGER

@<TRIPOS>ATOM
      1 C           0.8003   -3.2544   -1.5882 C.ar    1  UNL1        0.0932
      2 C          -0.3424   -2.4462   -1.5599 C.ar    1  UNL1       -0.0150
      3 C           0.0779   -1.2468   -0.9618 C.ar    1  UNL1        0.0356
      4 C          -0.4080   -0.0377   -0.6016 C.ar    1  UNL1        0.0314
      5 S           0.9020    0.8635    0.1042 S.2     1  UNL1       -0.0833
      6 C           2.0527   -0.4211   -0.1030 C.ar    1  UNL1        0.0699
      7 C           3.4201   -0.3490    0.3085 C.ar    1  UNL1        0.0377
      8 S           4.1973   -1.6463    1.1499 S.2     1  UNL1       -0.0943
      9 C           5.6933   -0.8072    1.2880 C.ar    1  UNL1       -0.0094
     10 C           5.6005    0.4252    0.7102 C.ar    1  UNL1        0.0269
     11 S           6.8219    1.7380    0.5406 S.2     1  UNL1       -0.0961
     12 C           5.5445    2.6089   -0.2941 C.ar    1  UNL1       -0.0231
     13 C           4.3187    1.9441   -0.4172 C.ar    1  UNL1       -0.0459
     14 C           4.3299    0.6516    0.1788 C.ar    1  UNL1        0.0046
     15 C           1.4092   -1.4535   -0.6901 C.ar    1  UNL1        0.1506
     16 O           1.9282   -2.6617   -1.0514 O.2     1  UNL1       -0.4617
     17 C          -1.7420    0.5471   -0.7151 C.ar    1  UNL1       -0.0029
     18 C          -1.9574    1.5013   -1.7236 C.ar    1  UNL1       -0.0529
     19 C          -3.2113    2.0758   -1.9001 C.ar    1  UNL1       -0.0606
     20 C          -4.2662    1.7008   -1.0726 C.ar    1  UNL1       -0.0540
     21 C          -4.0849    0.7506   -0.0561 C.ar    1  UNL1       -0.0173
     22 C          -5.1636    0.3880    0.7679 C.ar    1  UNL1       -0.0540
     23 C          -5.0064   -0.5496    1.7873 C.ar    1  UNL1       -0.0612
     24 C          -3.7664   -1.1364    1.9986 C.ar    1  UNL1       -0.0611
     25 C          -2.6840   -0.7872    1.1879 C.ar    1  UNL1       -0.0534
     26 C          -2.8116    0.1575    0.1401 C.ar    1  UNL1       -0.0097
     27 H           0.9674   -4.2594   -1.9537 H       1  UNL1        0.1030
     28 H          -1.3235   -2.7125   -1.9267 H       1  UNL1        0.0655
     29 H           6.5581   -1.2387    1.7727 H       1  UNL1        0.0705
     30 H           5.7826    3.5977   -0.6619 H       1  UNL1        0.0694
     31 H           3.4709    2.3913   -0.9211 H       1  UNL1        0.0629
     32 H          -1.1432    1.7970   -2.3824 H       1  UNL1        0.0624
     33 H          -3.3683    2.8133   -2.6829 H       1  UNL1        0.0618
     34 H          -5.2402    2.1612   -1.2274 H       1  UNL1        0.0624
     35 H          -6.1430    0.8390    0.6218 H       1  UNL1        0.0624
     36 H          -5.8513   -0.8170    2.4163 H       1  UNL1        0.0618
     37 H          -3.6349   -1.8642    2.7951 H       1  UNL1        0.0618
     38 H          -1.7269   -1.2629    1.3913 H       1  UNL1        0.0624
@<TRIPOS>BOND
     1     1     2   ar
     2     2     3   ar
     3     3     4   ar
     4     4     5   ar
     5     5     6   ar
     6     6     7    1
     7     7     8   ar
     8     8     9   ar
     9     9    10   ar
    10    10    11   ar
    11    11    12   ar
    12    12    13   ar
    13    13    14   ar
    14     6    15   ar
    15    15    16   ar
    16     4    17    1
    17    17    18   ar
    18    18    19   ar
    19    19    20   ar
    20    20    21   ar
    21    21    22   ar
    22    22    23   ar
    23    23    24   ar
    24    24    25   ar
    25    25    26   ar
    26    16     1   ar
    27    26    17   ar
    28    15     3   ar
    29    26    21   ar
    30    14     7   ar
    31    14    10   ar
    32     1    27    1
    33     2    28    1
    34     9    29    1
    35    12    30    1
    36    13    31    1
    37    18    32    1
    38    19    33    1
    39    20    34    1
    40    22    35    1
    41    23    36    1
    42    24    37    1
    43    25    38    1
