@<TRIPOS>MOLECULE
*****
 47 54 0 0 0
SMALL
GASTEIGER

@<TRIPOS>ATOM
      1 C          -6.3272   -1.4582   -1.2726 C.ar    1  UNL1        0.0028
      2 C          -4.9664   -1.0924   -1.1817 C.ar    1  UNL1       -0.0356
      3 C          -4.8562   -0.1554   -0.1215 C.ar    1  UNL1        0.0145
      4 C          -3.9483    0.6045    0.5319 C.ar    1  UNL1        0.0306
      5 S          -4.8051    1.4658    1.7819 S.2     1  UNL1       -0.0939
      6 C          -6.3486    0.7932    1.3510 C.ar    1  UNL1        0.0002
      7 C          -6.1559   -0.0507    0.3180 C.ar    1  UNL1        0.0542
      8 N          -7.1022   -0.7973   -0.3203 N.ar    1  UNL1       -0.3602
      9 C          -2.5102    0.7243    0.3783 C.ar    1  UNL1        0.0181
     10 C          -1.6494   -0.3846    0.4685 C.ar    1  UNL1       -0.0430
     11 C          -0.2169   -0.3843    0.3212 C.ar    1  UNL1       -0.0068
     12 C           0.5378   -1.6011    0.4417 C.ar    1  UNL1       -0.0095
     13 C          -0.0747   -2.8652    0.7016 C.ar    1  UNL1       -0.0534
     14 C           0.6331   -4.0602    0.8224 C.ar    1  UNL1       -0.0611
     15 C           1.9998   -4.0438    0.6867 C.ar    1  UNL1       -0.0611
     16 C           2.6392   -2.8326    0.4319 C.ar    1  UNL1       -0.0534
     17 C           1.9544   -1.5878    0.3010 C.ar    1  UNL1       -0.0096
     18 C           2.6487   -0.3584    0.0384 C.ar    1  UNL1       -0.0089
     19 C           4.0694   -0.3045   -0.1053 C.ar    1  UNL1       -0.0456
     20 C           4.7926    0.8713   -0.3603 C.ar    1  UNL1       -0.0144
     21 C           6.1890    0.8917   -0.4961 C.ar    1  UNL1       -0.0359
     22 C           6.8186    2.1005   -0.7463 C.ar    1  UNL1        0.0281
     23 N           6.1649    3.2721   -0.8686 N.ar    1  UNL1       -0.2626
     24 C           4.8190    3.2251   -0.7334 C.ar    1  UNL1        0.0353
     25 C           4.0857    2.0600   -0.4805 C.ar    1  UNL1        0.0008
     26 C           2.6862    2.0348   -0.3436 C.ar    1  UNL1       -0.0442
     27 C           1.9247    0.8560   -0.0871 C.ar    1  UNL1       -0.0068
     28 C           0.4802    0.8422    0.0504 C.ar    1  UNL1        0.0186
     29 C          -0.3818    2.0244   -0.0726 C.ar    1  UNL1        0.1088
     30 N           0.0057    3.2869   -0.3394 N.ar    1  UNL1       -0.1901
     31 S          -1.3293    4.2494   -0.3910 S.2     1  UNL1        0.1165
     32 N          -2.4993    3.1350   -0.0803 N.ar    1  UNL1       -0.1901
     33 C          -1.8852    1.9504    0.0910 C.ar    1  UNL1        0.1087
     34 H          -6.8115   -2.1441   -1.9560 H       1  UNL1        0.0807
     35 H          -4.1753   -1.4654   -1.8187 H       1  UNL1        0.0639
     36 H          -7.2592    1.0523    1.8718 H       1  UNL1        0.0714
     37 H          -8.0965   -0.8386   -0.1329 H       1  UNL1        0.1653
     38 H          -2.1658   -1.3188    0.6835 H       1  UNL1        0.0631
     39 H          -1.1490   -2.9658    0.8206 H       1  UNL1        0.0624
     40 H           0.1085   -4.9907    1.0212 H       1  UNL1        0.0618
     41 H           2.5756   -4.9607    0.7763 H       1  UNL1        0.0618
     42 H           3.7186   -2.8985    0.3367 H       1  UNL1        0.0624
     43 H           4.6640   -1.2090   -0.0177 H       1  UNL1        0.0630
     44 H           6.7798   -0.0138   -0.4094 H       1  UNL1        0.0639
     45 H           7.8975    2.1574   -0.8577 H       1  UNL1        0.0830
     46 H           4.3234    4.1872   -0.8379 H       1  UNL1        0.0836
     47 H           2.1975    2.9974   -0.4450 H       1  UNL1        0.0630
@<TRIPOS>BOND
     1     1     2   ar
     2     2     3   ar
     3     3     4   ar
     4     4     5   ar
     5     5     6   ar
     6     6     7   ar
     7     7     8   ar
     8     4     9    1
     9     9    10   ar
    10    10    11   ar
    11    11    12   ar
    12    12    13   ar
    13    13    14   ar
    14    14    15   ar
    15    15    16   ar
    16    16    17   ar
    17    17    18   ar
    18    18    19   ar
    19    19    20   ar
    20    20    21   ar
    21    21    22   ar
    22    22    23   ar
    23    23    24   ar
    24    24    25   ar
    25    25    26   ar
    26    26    27   ar
    27    27    28   ar
    28    28    29   ar
    29    29    30   ar
    30    30    31   ar
    31    31    32   ar
    32    32    33   ar
    33     8     1   ar
    34    33     9   ar
    35     7     3   ar
    36    28    11   ar
    37    33    29   ar
    38    17    12   ar
    39    27    18   ar
    40    25    20   ar
    41     1    34    1
    42     2    35    1
    43     6    36    1
    44     8    37    1
    45    10    38    1
    46    13    39    1
    47    14    40    1
    48    15    41    1
    49    16    42    1
    50    19    43    1
    51    21    44    1
    52    22    45    1
    53    24    46    1
    54    26    47    1
