@<TRIPOS>MOLECULE
*****
 44 51 0 0 0
SMALL
GASTEIGER

@<TRIPOS>ATOM
      1 C           6.9526    1.9986   -0.1828 C.ar    1  UNL1        0.0028
      2 C           5.5745    1.6976   -0.1417 C.ar    1  UNL1       -0.0355
      3 C           5.4468    0.2803   -0.0823 C.ar    1  UNL1        0.0149
      4 C           4.5239   -0.7127   -0.0287 C.ar    1  UNL1        0.0351
      5 S           5.4175   -2.2202   -0.0025 S.2     1  UNL1       -0.0934
      6 C           6.9682   -1.4518   -0.0597 C.ar    1  UNL1        0.0002
      7 C           6.7656   -0.1212   -0.0995 C.ar    1  UNL1        0.0542
      8 N           7.7285    0.8438   -0.1559 N.ar    1  UNL1       -0.3602
      9 C           3.0800   -0.6792    0.0073 C.ar    1  UNL1        0.0278
     10 C           2.2061   -1.7196   -0.2632 C.ar    1  UNL1       -0.0379
     11 C           0.8774   -1.2912   -0.1204 C.ar    1  UNL1        0.0026
     12 C          -0.2843   -2.0889   -0.2695 C.ar    1  UNL1        0.0288
     13 C          -0.3965   -3.4206   -0.5149 C.ar    1  UNL1        0.1000
     14 O          -1.7260   -3.7343   -0.4314 O.2     1  UNL1       -0.4698
     15 C          -2.4020   -2.5753   -0.1387 C.ar    1  UNL1        0.1001
     16 C          -1.5471   -1.4956   -0.1008 C.ar    1  UNL1        0.0302
     17 C          -1.8589   -0.1377    0.1958 C.ar    1  UNL1        0.0205
     18 C          -0.6527    0.5783    0.4462 C.ar    1  UNL1        0.0865
     19 N          -0.6320    1.8530    0.9051 N.ar    1  UNL1       -0.2532
     20 C          -1.8173    2.4586    1.1485 C.ar    1  UNL1        0.0360
     21 C          -3.0768    1.9272    0.8932 C.ar    1  UNL1        0.0015
     22 C          -4.2475    2.7284    1.1826 C.ar    1  UNL1       -0.0519
     23 C          -5.5757    2.3566    0.8994 C.ar    1  UNL1       -0.0520
     24 C          -5.5897    1.1391    0.2474 C.ar    1  UNL1        0.0000
     25 C          -6.7125    0.5591   -0.2829 C.ar    1  UNL1        0.0094
     26 N          -6.2946   -0.5670   -0.9510 N.ar    1  UNL1       -0.3659
     27 C          -4.9224   -0.6899   -0.8578 C.ar    1  UNL1        0.0100
     28 C          -4.4568    0.3114   -0.0382 C.ar    1  UNL1        0.0078
     29 C          -3.1048    0.6060    0.3277 C.ar    1  UNL1        0.0026
     30 C           0.6613    0.0202    0.2571 C.ar    1  UNL1        0.0465
     31 S           2.2218    0.7523    0.4445 S.2     1  UNL1       -0.0855
     32 H           7.4446    2.9617   -0.2309 H       1  UNL1        0.0807
     33 H           4.7804    2.4327   -0.1557 H       1  UNL1        0.0639
     34 H           7.8948   -2.0080   -0.0618 H       1  UNL1        0.0714
     35 H           8.7337    0.7233   -0.1736 H       1  UNL1        0.1653
     36 H           2.5216   -2.7157   -0.5462 H       1  UNL1        0.0635
     37 H           0.2769   -4.2440   -0.7030 H       1  UNL1        0.1036
     38 H          -3.4559   -2.7207    0.0419 H       1  UNL1        0.1036
     39 H          -1.7091    3.4608    1.5598 H       1  UNL1        0.0836
     40 H          -4.1022    3.7093    1.6412 H       1  UNL1        0.0624
     41 H          -6.4322    2.9816    1.1054 H       1  UNL1        0.0624
     42 H          -7.7532    0.8539   -0.2889 H       1  UNL1        0.0813
     43 H          -6.8948   -1.1787   -1.4893 H       1  UNL1        0.1648
     44 H          -4.4311   -1.4614   -1.4299 H       1  UNL1        0.0813
@<TRIPOS>BOND
     1     1     2   ar
     2     2     3   ar
     3     3     4   ar
     4     4     5   ar
     5     5     6   ar
     6     6     7   ar
     7     7     8   ar
     8     4     9    1
     9     9    10   ar
    10    10    11   ar
    11    11    12   ar
    12    12    13   ar
    13    13    14   ar
    14    14    15   ar
    15    15    16   ar
    16    16    17   ar
    17    17    18   ar
    18    18    19   ar
    19    19    20   ar
    20    20    21   ar
    21    21    22   ar
    22    22    23   ar
    23    23    24   ar
    24    24    25   ar
    25    25    26   ar
    26    26    27   ar
    27    27    28   ar
    28    28    29   ar
    29    18    30   ar
    30    30    31   ar
    31     8     1   ar
    32    31     9   ar
    33     7     3   ar
    34    30    11   ar
    35    16    12   ar
    36    29    17   ar
    37    29    21   ar
    38    28    24   ar
    39     1    32    1
    40     2    33    1
    41     6    34    1
    42     8    35    1
    43    10    36    1
    44    13    37    1
    45    15    38    1
    46    20    39    1
    47    22    40    1
    48    23    41    1
    49    25    42    1
    50    26    43    1
    51    27    44    1
