@<TRIPOS>MOLECULE
*****
 38 44 0 0 0
SMALL
GASTEIGER

@<TRIPOS>ATOM
      1 C           5.9488    2.2919    0.3862 C.ar    1  UNL1        0.0028
      2 C           4.5690    2.0498    0.2151 C.ar    1  UNL1       -0.0355
      3 C           4.3296    0.6927    0.5640 C.ar    1  UNL1        0.0159
      4 C           3.3282   -0.2185    0.6516 C.ar    1  UNL1        0.0467
      5 S           4.0742   -1.7034    1.2092 S.2     1  UNL1       -0.0924
      6 C           5.6686   -1.0297    1.2934 C.ar    1  UNL1        0.0002
      7 C           5.5891    0.2578    0.9089 C.ar    1  UNL1        0.0542
      8 N           6.6160    1.1528    0.8305 N.ar    1  UNL1       -0.3602
      9 C           1.8897   -0.1100    0.3694 C.ar    1  UNL1        0.0788
     10 C           0.9908   -1.1659    0.5166 C.ar    1  UNL1       -0.0267
     11 C          -0.3672   -0.9424    0.2154 C.ar    1  UNL1       -0.0001
     12 C          -1.4434   -1.8707    0.2949 C.ar    1  UNL1        0.0285
     13 C          -1.4007   -3.1904    0.6824 C.ar    1  UNL1        0.1000
     14 O          -2.6577   -3.7485    0.6238 O.2     1  UNL1       -0.4698
     15 C          -3.5297   -2.7774    0.1920 C.ar    1  UNL1        0.1002
     16 C          -2.8028   -1.6500   -0.0058 C.ar    1  UNL1        0.0332
     17 C          -3.1199   -0.3562   -0.4337 C.ar    1  UNL1        0.0555
     18 C          -4.3319    0.1850   -0.8010 C.ar    1  UNL1        0.0936
     19 N          -5.6719   -0.0137   -0.9775 N.ar    1  UNL1       -0.3576
     20 C          -6.2145    1.1793   -1.4157 C.ar    1  UNL1        0.0058
     21 C          -5.2290    2.1480   -1.5227 C.ar    1  UNL1       -0.0013
     22 C          -4.0597    1.4779   -1.1258 C.ar    1  UNL1        0.1537
     23 O          -2.7258    1.7771   -0.9792 O.2     1  UNL1       -0.4526
     24 C          -2.1466    0.6034   -0.5402 C.ar    1  UNL1        0.1475
     25 C          -0.7817    0.3486   -0.2287 C.ar    1  UNL1        0.0439
     26 C           0.1925    1.3324   -0.3420 C.ar    1  UNL1        0.0395
     27 N           1.5006    1.1247   -0.0540 N.ar    1  UNL1       -0.2537
     28 H           6.5124    3.2013    0.2227 H       1  UNL1        0.0807
     29 H           3.8381    2.7742   -0.1209 H       1  UNL1        0.0639
     30 H           6.5289   -1.6029    1.6085 H       1  UNL1        0.0714
     31 H           7.5940    1.0026    1.0443 H       1  UNL1        0.1653
     32 H           1.3150   -2.1423    0.8543 H       1  UNL1        0.0645
     33 H          -0.6208   -3.8626    1.0120 H       1  UNL1        0.1036
     34 H          -4.5627   -3.0767    0.0980 H       1  UNL1        0.1036
     35 H          -6.1498   -0.8903   -0.8085 H       1  UNL1        0.1654
     36 H          -7.2765    1.2389   -1.6182 H       1  UNL1        0.0808
     37 H          -5.3435    3.1747   -1.8383 H       1  UNL1        0.0669
     38 H          -0.0501    2.3385   -0.6741 H       1  UNL1        0.0837
@<TRIPOS>BOND
     1     1     2   ar
     2     2     3   ar
     3     3     4   ar
     4     4     5   ar
     5     5     6   ar
     6     6     7   ar
     7     7     8   ar
     8     4     9    1
     9     9    10   ar
    10    10    11   ar
    11    11    12   ar
    12    12    13   ar
    13    13    14   ar
    14    14    15   ar
    15    15    16   ar
    16    16    17   ar
    17    17    18   ar
    18    18    19   ar
    19    19    20   ar
    20    20    21   ar
    21    21    22   ar
    22    22    23   ar
    23    23    24   ar
    24    24    25   ar
    25    25    26   ar
    26    26    27   ar
    27     8     1   ar
    28    27     9   ar
    29     7     3   ar
    30    25    11   ar
    31    16    12   ar
    32    24    17   ar
    33    22    18   ar
    34     1    28    1
    35     2    29    1
    36     6    30    1
    37     8    31    1
    38    10    32    1
    39    13    33    1
    40    15    34    1
    41    19    35    1
    42    20    36    1
    43    21    37    1
    44    26    38    1
