@<TRIPOS>MOLECULE
*****
 41 47 0 0 0
SMALL
GASTEIGER

@<TRIPOS>ATOM
      1 C           5.0601    2.7289    0.1756 C.ar    1  UNL1        0.0028
      2 C           3.8279    2.0426    0.1196 C.ar    1  UNL1       -0.0355
      3 C           4.1130    0.6469    0.1487 C.ar    1  UNL1        0.0158
      4 C           3.5231   -0.5742    0.1312 C.ar    1  UNL1        0.0447
      5 S           4.8077   -1.7576    0.2093 S.2     1  UNL1       -0.0925
      6 C           6.0684   -0.5717    0.2615 C.ar    1  UNL1        0.0002
      7 C           5.4904    0.6440    0.2193 C.ar    1  UNL1        0.0542
      8 N           6.1343    1.8465    0.2398 N.ar    1  UNL1       -0.3602
      9 C           2.1398   -0.9571    0.0643 C.ar    1  UNL1        0.0548
     10 C           1.5604   -2.2172    0.0477 C.ar    1  UNL1       -0.0275
     11 C           0.1860   -1.9947   -0.0250 C.ar    1  UNL1        0.0091
     12 C          -0.8863   -2.9295   -0.0702 C.ar    1  UNL1       -0.0011
     13 C          -0.7523   -4.2864   -0.0493 C.ar    1  UNL1       -0.0160
     14 S          -2.3189   -4.9952   -0.1221 S.2     1  UNL1       -0.1038
     15 C          -3.0983   -3.4517   -0.1781 C.ar    1  UNL1       -0.0160
     16 C          -2.2006   -2.4040   -0.1430 C.ar    1  UNL1       -0.0025
     17 C          -2.5736   -1.0294   -0.1764 C.ar    1  UNL1       -0.0071
     18 C          -3.8863   -0.5030   -0.2491 C.ar    1  UNL1       -0.0455
     19 C          -4.1035    0.8844   -0.2746 C.ar    1  UNL1       -0.0144
     20 C          -5.3936    1.4236   -0.3463 C.ar    1  UNL1       -0.0359
     21 C          -5.5427    2.8013   -0.3682 C.ar    1  UNL1        0.0281
     22 N          -4.5124    3.6694   -0.3245 N.ar    1  UNL1       -0.2626
     23 C          -3.2727    3.1311   -0.2554 C.ar    1  UNL1        0.0353
     24 C          -3.0002    1.7610   -0.2272 C.ar    1  UNL1        0.0009
     25 C          -1.6894    1.2507   -0.1548 C.ar    1  UNL1       -0.0429
     26 C          -1.4596   -0.1379   -0.1286 C.ar    1  UNL1        0.0073
     27 C          -0.1245   -0.6485   -0.0549 C.ar    1  UNL1        0.0554
     28 N           1.1121   -0.0326    0.0021 N.ar    1  UNL1       -0.3532
     29 H           5.2565    3.7937    0.1745 H       1  UNL1        0.0807
     30 H           2.8645    2.5285    0.0652 H       1  UNL1        0.0639
     31 H           7.1145   -0.8369    0.3179 H       1  UNL1        0.0714
     32 H           7.1310    2.0200    0.2890 H       1  UNL1        0.1653
     33 H           2.0840   -3.1628    0.0843 H       1  UNL1        0.0645
     34 H           0.1361   -4.8995    0.0026 H       1  UNL1        0.0700
     35 H          -4.1768   -3.4270   -0.2336 H       1  UNL1        0.0700
     36 H          -4.7381   -1.1765   -0.2857 H       1  UNL1        0.0630
     37 H          -6.2722    0.7884   -0.3847 H       1  UNL1        0.0639
     38 H          -6.5283    3.2551   -0.4234 H       1  UNL1        0.0830
     39 H          -2.4711    3.8645   -0.2219 H       1  UNL1        0.0836
     40 H          -0.8565    1.9473   -0.1193 H       1  UNL1        0.0631
     41 H           1.2481    0.9654   -0.0013 H       1  UNL1        0.1659
@<TRIPOS>BOND
     1     1     2   ar
     2     2     3   ar
     3     3     4   ar
     4     4     5   ar
     5     5     6   ar
     6     6     7   ar
     7     7     8   ar
     8     4     9    1
     9     9    10   ar
    10    10    11   ar
    11    11    12   ar
    12    12    13   ar
    13    13    14   ar
    14    14    15   ar
    15    15    16   ar
    16    16    17   ar
    17    17    18   ar
    18    18    19   ar
    19    19    20   ar
    20    20    21   ar
    21    21    22   ar
    22    22    23   ar
    23    23    24   ar
    24    24    25   ar
    25    25    26   ar
    26    26    27   ar
    27    27    28   ar
    28     8     1   ar
    29    28     9   ar
    30     7     3   ar
    31    27    11   ar
    32    16    12   ar
    33    26    17   ar
    34    24    19   ar
    35     1    29    1
    36     2    30    1
    37     6    31    1
    38     8    32    1
    39    10    33    1
    40    13    34    1
    41    15    35    1
    42    18    36    1
    43    20    37    1
    44    21    38    1
    45    23    39    1
    46    25    40    1
    47    28    41    1
