@<TRIPOS>MOLECULE
*****
 44 51 0 0 0
SMALL
GASTEIGER

@<TRIPOS>ATOM
      1 C          -6.4997    0.0727   -1.7904 C.ar    1  UNL1        0.0028
      2 C          -5.1137    0.2352   -1.5763 C.ar    1  UNL1       -0.0356
      3 C          -4.7972   -0.4326   -0.3647 C.ar    1  UNL1        0.0144
      4 C          -3.7567   -0.7102    0.4530 C.ar    1  UNL1        0.0291
      5 S          -4.3810   -1.6606    1.7741 S.2     1  UNL1       -0.0939
      6 C          -6.0120   -1.6375    1.1743 C.ar    1  UNL1        0.0002
      7 C          -6.0183   -0.9329    0.0254 C.ar    1  UNL1        0.0542
      8 N          -7.0930   -0.6744   -0.7737 N.ar    1  UNL1       -0.3602
      9 C          -2.3517   -0.3649    0.3873 C.ar    1  UNL1       -0.0018
     10 C          -1.3169   -1.3103    0.3379 C.ar    1  UNL1       -0.0430
     11 C           0.0875   -0.9748    0.2402 C.ar    1  UNL1        0.0121
     12 C           1.0332   -2.0454    0.2601 C.ar    1  UNL1        0.1083
     13 N           0.7232   -3.3516    0.3842 N.ar    1  UNL1       -0.1901
     14 S           2.1402   -4.1935    0.3962 S.2     1  UNL1        0.1165
     15 N           3.2089   -2.9564    0.2292 N.ar    1  UNL1       -0.1901
     16 C           2.5179   -1.8027    0.1525 C.ar    1  UNL1        0.1102
     17 C           3.0592   -0.4785   -0.0372 C.ar    1  UNL1        0.0368
     18 C           2.0888    0.5806   -0.1018 C.ar    1  UNL1       -0.0053
     19 C           2.6098    1.8357   -0.4648 C.ar    1  UNL1       -0.0527
     20 C           3.9734    2.0758   -0.6341 C.ar    1  UNL1       -0.0520
     21 C           4.8982    1.0489   -0.4745 C.ar    1  UNL1        0.0011
     22 C           6.2682    1.3110   -0.6290 C.ar    1  UNL1       -0.0511
     23 C           7.1911    0.2871   -0.4934 C.ar    1  UNL1       -0.0430
     24 C           6.7045   -0.9674   -0.2111 C.ar    1  UNL1        0.0283
     25 N           5.3912   -1.2414   -0.0608 N.ar    1  UNL1       -0.2543
     26 C           4.4659   -0.2587   -0.1835 C.ar    1  UNL1        0.0808
     27 C           0.6487    0.3542    0.1348 C.ar    1  UNL1        0.0003
     28 C          -0.4397    1.2959    0.3098 C.ar    1  UNL1       -0.0019
     29 C          -0.2803    2.6439    0.5537 C.ar    1  UNL1       -0.0160
     30 S          -1.7653    3.4905    0.6948 S.2     1  UNL1       -0.1038
     31 C          -2.6668    2.0454    0.5745 C.ar    1  UNL1       -0.0160
     32 C          -1.8557    0.9437    0.4085 C.ar    1  UNL1       -0.0020
     33 H          -7.1175    0.4340   -2.6028 H       1  UNL1        0.0807
     34 H          -4.4376    0.7720   -2.2289 H       1  UNL1        0.0639
     35 H          -6.8258   -2.1284    1.6886 H       1  UNL1        0.0714
     36 H          -8.0544   -0.9635   -0.6413 H       1  UNL1        0.1653
     37 H          -1.5971   -2.3662    0.3682 H       1  UNL1        0.0631
     38 H           1.9571    2.6714   -0.6927 H       1  UNL1        0.0624
     39 H           4.2986    3.0783   -0.9066 H       1  UNL1        0.0624
     40 H           6.6214    2.3137   -0.8576 H       1  UNL1        0.0625
     41 H           8.2539    0.4627   -0.6073 H       1  UNL1        0.0633
     42 H           7.3682   -1.8189   -0.0933 H       1  UNL1        0.0830
     43 H           0.6147    3.2265    0.6952 H       1  UNL1        0.0700
     44 H          -3.7433    2.0917    0.6695 H       1  UNL1        0.0700
@<TRIPOS>BOND
     1     1     2   ar
     2     2     3   ar
     3     3     4   ar
     4     4     5   ar
     5     5     6   ar
     6     6     7   ar
     7     7     8   ar
     8     4     9    1
     9     9    10   ar
    10    10    11   ar
    11    11    12   ar
    12    12    13   ar
    13    13    14   ar
    14    14    15   ar
    15    15    16   ar
    16    16    17   ar
    17    17    18   ar
    18    18    19   ar
    19    19    20   ar
    20    20    21   ar
    21    21    22   ar
    22    22    23   ar
    23    23    24   ar
    24    24    25   ar
    25    25    26   ar
    26    18    27   ar
    27    27    28   ar
    28    28    29   ar
    29    29    30   ar
    30    30    31   ar
    31    31    32   ar
    32     8     1   ar
    33    32     9   ar
    34     7     3   ar
    35    27    11   ar
    36    32    28   ar
    37    16    12   ar
    38    26    17   ar
    39    26    21   ar
    40     1    33    1
    41     2    34    1
    42     6    35    1
    43     8    36    1
    44    10    37    1
    45    19    38    1
    46    20    39    1
    47    22    40    1
    48    23    41    1
    49    24    42    1
    50    29    43    1
    51    31    44    1
