@<TRIPOS>MOLECULE
*****
 42 49 0 0 0
SMALL
GASTEIGER

@<TRIPOS>ATOM
      1 C           6.0448   -0.2839   -1.5161 C.ar    1  UNL1        0.0028
      2 C           4.6364   -0.2199   -1.4390 C.ar    1  UNL1       -0.0356
      3 C           4.2992   -0.0859   -0.0671 C.ar    1  UNL1        0.0144
      4 C           3.2329    0.0340    0.7553 C.ar    1  UNL1        0.0292
      5 S           3.8498    0.1242    2.3834 S.2     1  UNL1       -0.0939
      6 C           5.5118    0.0292    1.8852 C.ar    1  UNL1        0.0002
      7 C           5.5329   -0.0833    0.5424 C.ar    1  UNL1        0.0542
      8 N           6.6335   -0.1971   -0.2553 N.ar    1  UNL1       -0.3602
      9 C           1.8127    0.0343    0.4882 C.ar    1  UNL1        0.0007
     10 C           1.1456   -0.9590   -0.2513 C.ar    1  UNL1       -0.0430
     11 C          -0.2806   -0.9432   -0.5464 C.ar    1  UNL1        0.0122
     12 C          -0.8159   -1.9520   -1.4109 C.ar    1  UNL1        0.1082
     13 N          -0.1093   -2.9452   -1.9853 N.ar    1  UNL1       -0.1901
     14 S          -1.1501   -3.8063   -2.9349 S.2     1  UNL1        0.1165
     15 N          -2.5526   -2.9762   -2.6678 N.ar    1  UNL1       -0.1901
     16 C          -2.2735   -1.9811   -1.8026 C.ar    1  UNL1        0.1082
     17 C          -3.2236   -1.0481   -1.2710 C.ar    1  UNL1        0.0115
     18 C          -4.6088   -1.1543   -1.6870 C.ar    1  UNL1       -0.0513
     19 C          -5.6509   -0.3711   -1.1710 C.ar    1  UNL1       -0.0529
     20 C          -5.1944    0.4504   -0.1502 C.ar    1  UNL1       -0.0103
     21 C          -6.0725    1.2064    0.5880 C.ar    1  UNL1       -0.0166
     22 S          -5.2749    1.9853    1.8874 S.2     1  UNL1       -0.1039
     23 C          -3.7621    1.2926    1.4561 C.ar    1  UNL1       -0.0160
     24 C          -3.8148    0.5849    0.2755 C.ar    1  UNL1       -0.0025
     25 C          -2.6944   -0.0897   -0.3234 C.ar    1  UNL1        0.0009
     26 C          -1.2403    0.0392   -0.0792 C.ar    1  UNL1        0.0034
     27 C          -0.4803    1.0784    0.5436 C.ar    1  UNL1        0.0288
     28 C          -0.8849    2.3580    0.8420 C.ar    1  UNL1        0.1000
     29 O           0.1435    3.0764    1.3781 O.2     1  UNL1       -0.4698
     30 C           1.2502    2.2827    1.3550 C.ar    1  UNL1        0.1000
     31 C           0.9336    1.0638    0.8103 C.ar    1  UNL1        0.0287
     32 H           6.6822   -0.3857   -2.3853 H       1  UNL1        0.0807
     33 H           3.9607   -0.2644   -2.2830 H       1  UNL1        0.0639
     34 H           6.3313    0.0548    2.5893 H       1  UNL1        0.0714
     35 H           7.6074   -0.2136    0.0213 H       1  UNL1        0.1653
     36 H           1.7437   -1.7874   -0.6393 H       1  UNL1        0.0631
     37 H          -4.8729   -1.8995   -2.4410 H       1  UNL1        0.0624
     38 H          -6.6796   -0.4779   -1.4884 H       1  UNL1        0.0624
     39 H          -7.1423    1.3139    0.4697 H       1  UNL1        0.0699
     40 H          -2.9333    1.4482    2.1296 H       1  UNL1        0.0700
     41 H          -1.7998    2.9200    0.7236 H       1  UNL1        0.1036
     42 H           2.1597    2.7483    1.7086 H       1  UNL1        0.1036
@<TRIPOS>BOND
     1     1     2   ar
     2     2     3   ar
     3     3     4   ar
     4     4     5   ar
     5     5     6   ar
     6     6     7   ar
     7     7     8   ar
     8     4     9    1
     9     9    10   ar
    10    10    11   ar
    11    11    12   ar
    12    12    13   ar
    13    13    14   ar
    14    14    15   ar
    15    15    16   ar
    16    16    17   ar
    17    17    18   ar
    18    18    19   ar
    19    19    20   ar
    20    20    21   ar
    21    21    22   ar
    22    22    23   ar
    23    23    24   ar
    24    24    25   ar
    25    25    26   ar
    26    26    27   ar
    27    27    28   ar
    28    28    29   ar
    29    29    30   ar
    30    30    31   ar
    31     8     1   ar
    32    31     9   ar
    33     7     3   ar
    34    26    11   ar
    35    31    27   ar
    36    16    12   ar
    37    25    17   ar
    38    24    20   ar
    39     1    32    1
    40     2    33    1
    41     6    34    1
    42     8    35    1
    43    10    36    1
    44    18    37    1
    45    19    38    1
    46    21    39    1
    47    23    40    1
    48    28    41    1
    49    30    42    1
