@<TRIPOS>MOLECULE
*****
 35 40 0 0 0
SMALL
GASTEIGER

@<TRIPOS>ATOM
      1 SI         -1.5713    3.7064   -1.2014 Si      1  UNL1        0.0000
      2 C          -2.6771    2.2933   -0.7119 C.2     1  UNL1        0.0000
      3 C          -1.9635    1.2160   -0.3321 C.ar    1  UNL1        0.0000
      4 C          -2.4709   -0.0410    0.1054 C.ar    1  UNL1        0.0000
      5 C          -3.8036   -0.4613    0.2468 C.ar    1  UNL1        0.0000
      6 O          -5.0178    0.1264    0.0362 O.2     1  UNL1        0.0000
      7 C          -5.9323   -0.8247    0.3650 C.ar    1  UNL1        0.0000
      8 C          -5.3546   -1.9992    0.7782 C.ar    1  UNL1        0.0000
      9 C          -3.9655   -1.7331    0.6909 C.ar    1  UNL1        0.0000
     10 S          -2.4340   -2.4978    0.9647 S.2     1  UNL1        0.0000
     11 C          -1.6083   -1.0656    0.4673 C.ar    1  UNL1        0.0000
     12 C          -0.1357   -0.9436    0.4308 C.ar    1  UNL1        0.0000
     13 C           0.7414   -1.9586    0.7894 C.ar    1  UNL1        0.0000
     14 N           2.0917   -1.8510    0.7573 N.ar    1  UNL1        0.0000
     15 C           2.6256   -0.6742    0.3480 C.ar    1  UNL1        0.0000
     16 C           1.8301    0.4035   -0.0322 C.ar    1  UNL1        0.0000
     17 C           0.4343    0.2799    0.0052 C.ar    1  UNL1        0.0000
     18 C          -0.4838    1.3906   -0.3870 C.ar    1  UNL1        0.0000
     19 C          -0.0977    2.6132   -0.8130 C.2     1  UNL1        0.0000
     20 C           4.1016   -0.6615    0.3497 C.ar    1  UNL1        0.0000
     21 C           4.9597   -1.6900    0.7128 C.ar    1  UNL1        0.0000
     22 C           6.3369   -1.3451    0.5979 C.ar    1  UNL1        0.0000
     23 C           6.5032   -0.0569    0.1483 C.ar    1  UNL1        0.0000
     24 S           5.0090    0.7204   -0.1297 S.2     1  UNL1        0.0000
     25 H          -1.6563    4.0305   -2.6453 H       1  UNL1        0.0000
     26 H          -1.6661    4.8595   -0.2749 H       1  UNL1        0.0000
     27 H          -3.7518    2.3823   -0.7474 H       1  UNL1        0.0000
     28 H          -6.9628   -0.5146    0.2523 H       1  UNL1        0.0000
     29 H          -5.8510   -2.9047    1.0928 H       1  UNL1        0.0000
     30 H           0.3920   -2.9297    1.1275 H       1  UNL1        0.0000
     31 H           2.2858    1.3308   -0.3546 H       1  UNL1        0.0000
     32 H           0.8996    2.9987   -0.9436 H       1  UNL1        0.0000
     33 H           4.6019   -2.6567    1.0492 H       1  UNL1        0.0000
     34 H           7.1591   -2.0094    0.8335 H       1  UNL1        0.0000
     35 H           7.4320    0.4670   -0.0310 H       1  UNL1        0.0000
@<TRIPOS>BOND
     1     1     2    1
     2     2     3    2
     3     3     4   ar
     4     4     5   ar
     5     5     6   ar
     6     6     7   ar
     7     7     8   ar
     8     8     9   ar
     9     9    10   ar
    10    10    11   ar
    11    11    12   ar
    12    12    13   ar
    13    13    14   ar
    14    14    15   ar
    15    15    16   ar
    16    16    17   ar
    17    17    18   ar
    18    18    19    2
    19    15    20    1
    20    20    21   ar
    21    21    22   ar
    22    22    23   ar
    23    23    24   ar
    24    19     1    1
    25    24    20   ar
    26    18     3   ar
    27    11     4   ar
    28    17    12   ar
    29     9     5   ar
    30     1    25    1
    31     1    26    1
    32     2    27    1
    33     7    28    1
    34     8    29    1
    35    13    30    1
    36    16    31    1
    37    19    32    1
    38    21    33    1
    39    22    34    1
    40    23    35    1
