@<TRIPOS>MOLECULE
*****
 34 39 0 0 0
SMALL
GASTEIGER

@<TRIPOS>ATOM
      1 C           6.2077   -0.8232    0.3080 C.ar    1  UNL1        0.0028
      2 C           4.8039   -0.9371    0.4009 C.ar    1  UNL1       -0.0355
      3 C           4.2429    0.2451   -0.1584 C.ar    1  UNL1        0.0174
      4 C           3.0616    0.8524   -0.4218 C.ar    1  UNL1        0.0636
      5 S           3.4294    2.3834   -1.1752 S.2     1  UNL1       -0.0909
      6 C           5.1455    2.1441   -1.1049 C.ar    1  UNL1        0.0003
      7 C           5.3701    0.9468   -0.5293 C.ar    1  UNL1        0.0543
      8 N           6.5860    0.3781   -0.2856 N.ar    1  UNL1       -0.3602
      9 C           1.7092    0.4365   -0.1836 C.ar    1  UNL1        0.1434
     10 C           1.2429   -0.7348    0.3978 C.ar    1  UNL1       -0.0074
     11 C          -0.1744   -0.6783    0.4082 C.ar    1  UNL1        0.0243
     12 C          -1.2184   -1.5064    0.8384 C.ar    1  UNL1       -0.0079
     13 C          -2.5268   -1.0684    0.6606 C.ar    1  UNL1        0.1371
     14 O          -3.6494   -1.7471    1.0202 O.2     1  UNL1       -0.4547
     15 C          -4.7115   -0.9686    0.6705 C.ar    1  UNL1        0.1391
     16 C          -6.0432   -1.2963    0.8653 C.ar    1  UNL1       -0.0006
     17 C          -6.9241   -0.3272    0.4181 C.ar    1  UNL1        0.0311
     18 N          -6.5654    0.8444   -0.1605 N.ar    1  UNL1       -0.2624
     19 C          -5.2477    1.1265   -0.3328 C.ar    1  UNL1        0.0389
     20 C          -4.2776    0.2145    0.0843 C.ar    1  UNL1        0.0461
     21 C          -2.8554    0.1521    0.0766 C.ar    1  UNL1        0.0329
     22 C          -1.8068    0.9783   -0.3528 C.ar    1  UNL1       -0.0074
     23 C          -0.5003    0.5371   -0.1734 C.ar    1  UNL1        0.1365
     24 O           0.6233    1.2078   -0.5292 O.2     1  UNL1       -0.4543
     25 H           6.9771   -1.5163    0.6241 H       1  UNL1        0.0807
     26 H           4.2818   -1.7833    0.8258 H       1  UNL1        0.0639
     27 H           5.8496    2.8741   -1.4783 H       1  UNL1        0.0714
     28 H           7.5037    0.7534   -0.4924 H       1  UNL1        0.1653
     29 H           1.8542   -1.5418    0.7734 H       1  UNL1        0.0662
     30 H          -1.0209   -2.4682    1.3003 H       1  UNL1        0.0661
     31 H          -6.3580   -2.2219    1.3233 H       1  UNL1        0.0670
     32 H          -7.9974   -0.4730    0.5176 H       1  UNL1        0.0831
     33 H          -5.0138    2.0761   -0.8003 H       1  UNL1        0.0837
     34 H          -1.9979    1.9412   -0.8154 H       1  UNL1        0.0662
@<TRIPOS>BOND
     1     1     2   ar
     2     2     3   ar
     3     3     4   ar
     4     4     5   ar
     5     5     6   ar
     6     6     7   ar
     7     7     8   ar
     8     4     9    1
     9     9    10   ar
    10    10    11   ar
    11    11    12   ar
    12    12    13   ar
    13    13    14   ar
    14    14    15   ar
    15    15    16   ar
    16    16    17   ar
    17    17    18   ar
    18    18    19   ar
    19    19    20   ar
    20    20    21   ar
    21    21    22   ar
    22    22    23   ar
    23    23    24   ar
    24     8     1   ar
    25    24     9   ar
    26     7     3   ar
    27    23    11   ar
    28    21    13   ar
    29    20    15   ar
    30     1    25    1
    31     2    26    1
    32     6    27    1
    33     8    28    1
    34    10    29    1
    35    12    30    1
    36    16    31    1
    37    17    32    1
    38    19    33    1
    39    22    34    1
