@<TRIPOS>MOLECULE
*****
 44 51 0 0 0
SMALL
GASTEIGER

@<TRIPOS>ATOM
      1 C           6.9476   -0.0769   -1.4981 C.ar    1  UNL1        0.0028
      2 C           5.5481   -0.0903   -1.3151 C.ar    1  UNL1       -0.0355
      3 C           5.3043   -0.2323    0.0791 C.ar    1  UNL1        0.0159
      4 C           4.2979   -0.3293    0.9819 C.ar    1  UNL1        0.0467
      5 S           5.0502   -0.5171    2.5513 S.2     1  UNL1       -0.0924
      6 C           6.6657   -0.4537    1.9240 C.ar    1  UNL1        0.0002
      7 C           6.5822   -0.2998    0.5887 C.ar    1  UNL1        0.0542
      8 N           7.6238   -0.2112   -0.2877 N.ar    1  UNL1       -0.3602
      9 C           2.8436   -0.2854    0.8424 C.ar    1  UNL1        0.0787
     10 C           2.2207    0.4333   -0.1641 C.ar    1  UNL1       -0.0274
     11 C           0.8198    0.4301   -0.2544 C.ar    1  UNL1       -0.0138
     12 C           0.2046    1.1327   -1.2824 C.ar    1  UNL1       -0.0533
     13 C          -1.1862    1.1375   -1.4298 C.ar    1  UNL1       -0.0528
     14 C          -2.0758    0.4741   -0.5628 C.ar    1  UNL1       -0.0067
     15 C          -3.5650    0.5104   -0.7835 C.ar    1  UNL1        0.0187
     16 C          -4.2683    1.1564   -1.8903 C.ar    1  UNL1        0.1081
     17 N          -3.7143    1.8307   -2.9163 N.ar    1  UNL1       -0.1901
     18 S          -4.9236    2.3681   -3.9026 S.2     1  UNL1        0.1165
     19 N          -6.2451    1.7827   -3.1040 N.ar    1  UNL1       -0.1908
     20 C          -5.7853    1.1355   -2.0223 C.ar    1  UNL1        0.1005
     21 C          -6.6128    0.4903   -1.0854 C.ar    1  UNL1       -0.0329
     22 C          -5.9506   -0.1296   -0.0295 C.ar    1  UNL1       -0.0512
     23 C          -4.5218   -0.1175    0.1052 C.ar    1  UNL1       -0.0044
     24 C          -3.8511   -0.7324    1.1740 C.ar    1  UNL1        0.0282
     25 C          -4.4390   -1.3908    2.2265 C.ar    1  UNL1        0.1000
     26 O          -3.4867   -1.8214    3.0922 O.2     1  UNL1       -0.4698
     27 C          -2.2801   -1.4386    2.5862 C.ar    1  UNL1        0.1000
     28 C          -2.4357   -0.7851    1.3848 C.ar    1  UNL1        0.0288
     29 C          -1.4329   -0.2219    0.5359 C.ar    1  UNL1        0.0027
     30 C           0.0288   -0.2754    0.6689 C.ar    1  UNL1        0.0087
     31 C           0.7844   -0.9827    1.6235 C.ar    1  UNL1        0.0366
     32 N           2.1380   -1.0011    1.7365 N.ar    1  UNL1       -0.2538
     33 H           7.5220    0.0117   -2.4115 H       1  UNL1        0.0807
     34 H           4.8193   -0.0151   -2.1109 H       1  UNL1        0.0639
     35 H           7.5373   -0.5341    2.5575 H       1  UNL1        0.0714
     36 H           8.6152   -0.2442   -0.0839 H       1  UNL1        0.1653
     37 H           2.8150    1.0024   -0.8718 H       1  UNL1        0.0645
     38 H           0.7973    1.6868   -2.0094 H       1  UNL1        0.0624
     39 H          -1.5488    1.7118   -2.2766 H       1  UNL1        0.0624
     40 H          -7.6912    0.4796   -1.1856 H       1  UNL1        0.0640
     41 H          -6.5644   -0.6386    0.7124 H       1  UNL1        0.0624
     42 H          -5.4544   -1.6211    2.5166 H       1  UNL1        0.1036
     43 H          -1.4572   -1.7068    3.2281 H       1  UNL1        0.1036
     44 H           0.3243   -1.6218    2.3620 H       1  UNL1        0.0836
@<TRIPOS>BOND
     1     1     2   ar
     2     2     3   ar
     3     3     4   ar
     4     4     5   ar
     5     5     6   ar
     6     6     7   ar
     7     7     8   ar
     8     4     9    1
     9     9    10   ar
    10    10    11   ar
    11    11    12   ar
    12    12    13   ar
    13    13    14   ar
    14    14    15   ar
    15    15    16   ar
    16    16    17   ar
    17    17    18   ar
    18    18    19   ar
    19    19    20   ar
    20    20    21   ar
    21    21    22   ar
    22    22    23   ar
    23    23    24   ar
    24    24    25   ar
    25    25    26   ar
    26    26    27   ar
    27    27    28   ar
    28    28    29   ar
    29    29    30   ar
    30    30    31   ar
    31    31    32   ar
    32     8     1   ar
    33    32     9   ar
    34     7     3   ar
    35    30    11   ar
    36    29    14   ar
    37    23    15   ar
    38    28    24   ar
    39    20    16   ar
    40     1    33    1
    41     2    34    1
    42     6    35    1
    43     8    36    1
    44    10    37    1
    45    12    38    1
    46    13    39    1
    47    21    40    1
    48    22    41    1
    49    25    42    1
    50    27    43    1
    51    31    44    1
