@<TRIPOS>MOLECULE
*****
 33 38 0 0 0
SMALL
GASTEIGER

@<TRIPOS>ATOM
      1 C          -4.8081    2.2436   -0.3137 C.ar    1  UNL1        0.0028
      2 C          -3.5448    1.6186   -0.2350 C.ar    1  UNL1       -0.0355
      3 C          -3.7696    0.2161   -0.2268 C.ar    1  UNL1        0.0174
      4 C          -3.1122   -0.9649   -0.1732 C.ar    1  UNL1        0.0637
      5 S          -4.3185   -2.2217   -0.2212 S.2     1  UNL1       -0.0909
      6 C          -5.6495   -1.1092   -0.3108 C.ar    1  UNL1        0.0003
      7 C          -5.1421    0.1392   -0.3012 C.ar    1  UNL1        0.0543
      8 N          -5.8413    1.3093   -0.3569 N.ar    1  UNL1       -0.3602
      9 C          -1.7030   -1.2197   -0.0919 C.ar    1  UNL1        0.1451
     10 C          -1.0238   -2.4345   -0.0367 C.ar    1  UNL1        0.0109
     11 C           0.3537   -2.1443    0.0349 C.ar    1  UNL1        0.1132
     12 N           1.4421   -2.9490    0.1066 N.ar    1  UNL1       -0.2509
     13 C           2.6843   -2.3864    0.1668 C.ar    1  UNL1        0.0413
     14 C           2.9205   -1.0059    0.1595 C.ar    1  UNL1        0.0680
     15 C           4.0454   -0.1496    0.2089 C.ar    1  UNL1        0.1182
     16 N           5.3716   -0.4352    0.2861 N.ar    1  UNL1       -0.2511
     17 C           6.1713    0.6577    0.3141 C.ar    1  UNL1        0.0285
     18 C           5.7435    1.9830    0.2712 C.ar    1  UNL1       -0.0401
     19 C           4.3801    2.2658    0.1919 C.ar    1  UNL1       -0.0158
     20 C           3.5518    1.1526    0.1626 C.ar    1  UNL1        0.1546
     21 O           2.1910    1.1485    0.0878 O.2     1  UNL1       -0.4494
     22 C           1.8315   -0.1582    0.0871 C.ar    1  UNL1        0.1834
     23 C           0.4376   -0.7744    0.0194 C.ar    1  UNL1        0.1965
     24 O          -0.7771   -0.1956   -0.0559 O.2     1  UNL1       -0.4490
     25 H          -5.0530    3.2977   -0.3426 H       1  UNL1        0.0807
     26 H          -2.5917    2.1300   -0.1900 H       1  UNL1        0.0639
     27 H          -6.6783   -1.4362   -0.3626 H       1  UNL1        0.0714
     28 H          -6.8442    1.4366   -0.4139 H       1  UNL1        0.1653
     29 H          -1.4691   -3.4183   -0.0468 H       1  UNL1        0.0677
     30 H           3.5089   -3.0929    0.2226 H       1  UNL1        0.0837
     31 H           7.2347    0.4334    0.3759 H       1  UNL1        0.0830
     32 H           6.4697    2.7898    0.2993 H       1  UNL1        0.0634
     33 H           3.9889    3.2740    0.1556 H       1  UNL1        0.0655
@<TRIPOS>BOND
     1     1     2   ar
     2     2     3   ar
     3     3     4   ar
     4     4     5   ar
     5     5     6   ar
     6     6     7   ar
     7     7     8   ar
     8     4     9    1
     9     9    10   ar
    10    10    11   ar
    11    11    12   ar
    12    12    13   ar
    13    13    14   ar
    14    14    15   ar
    15    15    16   ar
    16    16    17   ar
    17    17    18   ar
    18    18    19   ar
    19    19    20   ar
    20    20    21   ar
    21    21    22   ar
    22    22    23   ar
    23    23    24   ar
    24     8     1   ar
    25    24     9   ar
    26     7     3   ar
    27    23    11   ar
    28    22    14   ar
    29    20    15   ar
    30     1    25    1
    31     2    26    1
    32     6    27    1
    33     8    28    1
    34    10    29    1
    35    13    30    1
    36    17    31    1
    37    18    32    1
    38    19    33    1
