@<TRIPOS>MOLECULE
*****
 38 44 0 0 0
SMALL
GASTEIGER

@<TRIPOS>ATOM
      1 C          -5.7712    0.7249    1.9124 C.ar    1  UNL1        0.0028
      2 C          -4.3742    0.6170    1.7389 C.ar    1  UNL1       -0.0356
      3 C          -4.1555    0.0554    0.4542 C.ar    1  UNL1        0.0144
      4 C          -3.1639   -0.3292   -0.3805 C.ar    1  UNL1        0.0291
      5 S          -3.9169   -0.9243   -1.8351 S.2     1  UNL1       -0.0939
      6 C          -5.5307   -0.6396   -1.2552 C.ar    1  UNL1        0.0002
      7 C          -5.4370   -0.1137   -0.0177 C.ar    1  UNL1        0.0542
      8 N          -6.4656    0.2618    0.7955 N.ar    1  UNL1       -0.3602
      9 C          -1.7201   -0.3127   -0.2492 C.ar    1  UNL1       -0.0014
     10 C          -0.8929    0.4716   -1.0726 C.ar    1  UNL1       -0.0385
     11 C           0.5190    0.4927   -0.9106 C.ar    1  UNL1        0.0218
     12 S           1.6461    1.4091   -1.8438 S.2     1  UNL1       -0.0845
     13 C           2.9522    0.8095   -0.9590 C.ar    1  UNL1        0.0633
     14 C           2.6296   -0.0818    0.0530 C.ar    1  UNL1        0.0011
     15 C           3.7322   -0.5876    0.8006 C.ar    1  UNL1       -0.0521
     16 C           5.0955   -0.2332    0.5637 C.ar    1  UNL1       -0.0503
     17 C           5.4528    0.6659   -0.4534 C.ar    1  UNL1        0.0213
     18 C           6.6468    1.2328   -0.9648 C.ar    1  UNL1       -0.0161
     19 C           6.2694    2.0628   -1.9983 C.ar    1  UNL1        0.0932
     20 O           4.9189    2.0463   -2.1597 O.2     1  UNL1       -0.4618
     21 C           4.4337    1.1968   -1.2189 C.ar    1  UNL1        0.1490
     22 C           1.2100   -0.2409    0.0510 C.ar    1  UNL1        0.0053
     23 C           0.3946   -1.0701    0.9203 C.ar    1  UNL1       -0.0015
     24 C           0.8272   -1.8830    1.9287 C.ar    1  UNL1       -0.0160
     25 S          -0.5125   -2.6760    2.6620 S.2     1  UNL1       -0.1038
     26 C          -1.6312   -1.9101    1.6035 C.ar    1  UNL1       -0.0160
     27 C          -1.0173   -1.0508    0.7131 C.ar    1  UNL1       -0.0020
     28 H          -6.3322    1.1042    2.7570 H       1  UNL1        0.0807
     29 H          -3.6276    0.9140    2.4639 H       1  UNL1        0.0639
     30 H          -6.4072   -0.8684   -1.8444 H       1  UNL1        0.0714
     31 H          -7.4599    0.2095    0.6109 H       1  UNL1        0.1653
     32 H          -1.3427    1.0887   -1.8493 H       1  UNL1        0.0635
     33 H           3.5626   -1.2899    1.6106 H       1  UNL1        0.0624
     34 H           5.8684   -0.6743    1.1901 H       1  UNL1        0.0625
     35 H           7.6580    1.0606   -0.6253 H       1  UNL1        0.0655
     36 H           6.8109    2.7016   -2.6822 H       1  UNL1        0.1030
     37 H           1.8122   -2.0926    2.3065 H       1  UNL1        0.0700
     38 H          -2.6814   -2.1470    1.7072 H       1  UNL1        0.0700
@<TRIPOS>BOND
     1     1     2   ar
     2     2     3   ar
     3     3     4   ar
     4     4     5   ar
     5     5     6   ar
     6     6     7   ar
     7     7     8   ar
     8     4     9    1
     9     9    10   ar
    10    10    11   ar
    11    11    12   ar
    12    12    13   ar
    13    13    14   ar
    14    14    15   ar
    15    15    16   ar
    16    16    17   ar
    17    17    18   ar
    18    18    19   ar
    19    19    20   ar
    20    20    21   ar
    21    14    22   ar
    22    22    23   ar
    23    23    24   ar
    24    24    25   ar
    25    25    26   ar
    26    26    27   ar
    27     8     1   ar
    28    27     9   ar
    29     7     3   ar
    30    22    11   ar
    31    27    23   ar
    32    21    13   ar
    33    21    17   ar
    34     1    28    1
    35     2    29    1
    36     6    30    1
    37     8    31    1
    38    10    32    1
    39    15    33    1
    40    16    34    1
    41    18    35    1
    42    19    36    1
    43    24    37    1
    44    26    38    1
