@<TRIPOS>MOLECULE
*****
 45 50 0 0 0
SMALL
GASTEIGER

@<TRIPOS>ATOM
      1 C           6.5337    1.3016    2.4372 C.ar    1  UNL1        0.0028
      2 C           5.1872    1.2680    2.0134 C.ar    1  UNL1       -0.0356
      3 C           5.0734    0.2162    1.0680 C.ar    1  UNL1        0.0144
      4 C           4.1726   -0.3968    0.2682 C.ar    1  UNL1        0.0291
      5 S           5.0114   -1.6777   -0.5638 S.2     1  UNL1       -0.0939
      6 C           6.5417   -1.3153    0.1772 C.ar    1  UNL1        0.0002
      7 C           6.3569   -0.2770    1.0166 C.ar    1  UNL1        0.0542
      8 N           7.2957    0.3187    1.8068 N.ar    1  UNL1       -0.3602
      9 C           2.7547   -0.1845    0.0872 C.ar    1  UNL1       -0.0015
     10 C           1.7991   -0.3371    1.1217 C.ar    1  UNL1       -0.0522
     11 C           0.3884   -0.1200    0.9514 C.ar    1  UNL1       -0.0514
     12 C          -0.2092    0.2866   -0.2673 C.ar    1  UNL1        0.0075
     13 C          -1.6301    0.5127   -0.4384 C.ar    1  UNL1        0.0475
     14 C          -2.3245    1.5785   -0.9773 C.ar    1  UNL1       -0.0358
     15 C          -3.7071    1.2854   -0.8951 C.ar    1  UNL1       -0.0358
     16 C          -3.8505    0.0460   -0.2960 C.ar    1  UNL1        0.0469
     17 N          -2.5741   -0.4041   -0.0338 N.ar    1  UNL1       -0.3541
     18 C          -5.0515   -0.7314    0.0156 C.ar    1  UNL1       -0.0017
     19 C          -6.1707   -0.6707   -0.8258 C.ar    1  UNL1       -0.0526
     20 C          -7.3210   -1.4110   -0.5401 C.ar    1  UNL1       -0.0611
     21 C          -7.3671   -2.2184    0.5938 C.ar    1  UNL1       -0.0617
     22 C          -6.2648   -2.2843    1.4429 C.ar    1  UNL1       -0.0611
     23 C          -5.1138   -1.5447    1.1560 C.ar    1  UNL1       -0.0526
     24 C           0.7466    0.4487   -1.2787 C.ar    1  UNL1        0.0091
     25 C           0.5422    0.8146   -2.5878 C.ar    1  UNL1        0.0101
     26 N           1.7740    0.8508   -3.2032 N.ar    1  UNL1       -0.3659
     27 C           2.7638    0.5010   -2.3114 C.ar    1  UNL1        0.0100
     28 C           2.1548    0.2234   -1.1108 C.ar    1  UNL1        0.0082
     29 H           7.0149    1.9614    3.1478 H       1  UNL1        0.0807
     30 H           4.4047    1.9330    2.3546 H       1  UNL1        0.0639
     31 H           7.4394   -1.8749   -0.0431 H       1  UNL1        0.0714
     32 H           8.2777    0.0877    1.8931 H       1  UNL1        0.1653
     33 H           2.1475   -0.6404    2.1099 H       1  UNL1        0.0624
     34 H          -0.2471   -0.2590    1.8261 H       1  UNL1        0.0624
     35 H          -1.8793    2.4784   -1.3817 H       1  UNL1        0.0639
     36 H          -4.5162    1.9224   -1.2282 H       1  UNL1        0.0639
     37 H          -2.3549   -1.3068    0.3623 H       1  UNL1        0.1659
     38 H          -6.1522   -0.0535   -1.7208 H       1  UNL1        0.0624
     39 H          -8.1790   -1.3561   -1.2049 H       1  UNL1        0.0618
     40 H          -8.2623   -2.7926    0.8172 H       1  UNL1        0.0618
     41 H          -6.3018   -2.9067    2.3332 H       1  UNL1        0.0618
     42 H          -4.2770   -1.5974    1.8471 H       1  UNL1        0.0624
     43 H          -0.3542    1.0542   -3.1430 H       1  UNL1        0.0813
     44 H           1.9292    1.0973   -4.1720 H       1  UNL1        0.1648
     45 H           3.7989    0.4802   -2.6240 H       1  UNL1        0.0813
@<TRIPOS>BOND
     1     1     2   ar
     2     2     3   ar
     3     3     4   ar
     4     4     5   ar
     5     5     6   ar
     6     6     7   ar
     7     7     8   ar
     8     4     9    1
     9     9    10   ar
    10    10    11   ar
    11    11    12   ar
    12    12    13    1
    13    13    14   ar
    14    14    15   ar
    15    15    16   ar
    16    16    17   ar
    17    16    18    1
    18    18    19   ar
    19    19    20   ar
    20    20    21   ar
    21    21    22   ar
    22    22    23   ar
    23    12    24   ar
    24    24    25   ar
    25    25    26   ar
    26    26    27   ar
    27    27    28   ar
    28     8     1   ar
    29    28     9   ar
    30     7     3   ar
    31    17    13   ar
    32    23    18   ar
    33    28    24   ar
    34     1    29    1
    35     2    30    1
    36     6    31    1
    37     8    32    1
    38    10    33    1
    39    11    34    1
    40    14    35    1
    41    15    36    1
    42    17    37    1
    43    19    38    1
    44    20    39    1
    45    21    40    1
    46    22    41    1
    47    23    42    1
    48    25    43    1
    49    26    44    1
    50    27    45    1
