@<TRIPOS>MOLECULE
*****
 44 50 0 0 0
SMALL
GASTEIGER

@<TRIPOS>ATOM
      1 C          -7.0948    1.5727    0.3966 C.ar    1  UNL1        0.0028
      2 C          -5.6889    1.4621    0.3315 C.ar    1  UNL1       -0.0356
      3 C          -5.3901    0.1362   -0.0786 C.ar    1  UNL1        0.0144
      4 C          -4.3480   -0.6775   -0.3624 C.ar    1  UNL1        0.0291
      5 S          -5.0191   -2.2141   -0.8463 S.2     1  UNL1       -0.0939
      6 C          -6.6642   -1.6971   -0.6388 C.ar    1  UNL1        0.0002
      7 C          -6.6430   -0.4137   -0.2287 C.ar    1  UNL1        0.0542
      8 N          -7.7201    0.3793    0.0393 N.ar    1  UNL1       -0.3602
      9 C          -2.9146   -0.4731   -0.3336 C.ar    1  UNL1       -0.0015
     10 C          -2.0448   -0.7202   -1.4268 C.ar    1  UNL1       -0.0523
     11 C          -0.6259   -0.4907   -1.3969 C.ar    1  UNL1       -0.0523
     12 C           0.0728    0.0089   -0.2694 C.ar    1  UNL1       -0.0021
     13 C           1.4997    0.2740   -0.2333 C.ar    1  UNL1        0.0206
     14 C           2.1559    1.4560    0.0418 C.ar    1  UNL1       -0.0463
     15 C           3.5732    1.3207   -0.0330 C.ar    1  UNL1       -0.0448
     16 C           3.9739    0.0370   -0.3568 C.ar    1  UNL1        0.0403
     17 S           2.6086   -0.9836   -0.5698 S.2     1  UNL1       -0.0866
     18 C           5.3163   -0.5045   -0.5333 C.ar    1  UNL1        0.1056
     19 N           5.5607   -1.8040   -0.1615 N.ar    1  UNL1       -0.2522
     20 C           6.8028   -2.3606   -0.2950 C.ar    1  UNL1        0.0304
     21 C           7.9481   -1.7497   -0.7929 C.ar    1  UNL1       -0.0153
     22 C           7.7462   -0.4136   -1.1869 C.ar    1  UNL1        0.1034
     23 N           8.6884    0.3926   -1.7019 N.ar    1  UNL1       -0.1907
     24 S           7.9515    1.8481   -2.0050 S.2     1  UNL1        0.1165
     25 N           6.4094    1.5266   -1.4894 N.ar    1  UNL1       -0.1886
     26 C           6.3975    0.2494   -1.0583 C.ar    1  UNL1        0.1262
     27 C          -0.7943    0.2438    0.8069 C.ar    1  UNL1        0.0082
     28 C          -0.4752    0.6948    2.0662 C.ar    1  UNL1        0.0100
     29 N          -1.6432    0.7414    2.7948 N.ar    1  UNL1       -0.3659
     30 C          -2.7043    0.3242    2.0219 C.ar    1  UNL1        0.0100
     31 C          -2.2115    0.0143    0.7768 C.ar    1  UNL1        0.0082
     32 H          -7.7066    2.4246    0.6660 H       1  UNL1        0.0807
     33 H          -4.9858    2.2539    0.5533 H       1  UNL1        0.0639
     34 H          -7.5054   -2.3480   -0.8295 H       1  UNL1        0.0714
     35 H          -8.7022    0.1399   -0.0212 H       1  UNL1        0.1653
     36 H          -2.4692   -1.0957   -2.3598 H       1  UNL1        0.0624
     37 H          -0.0645   -0.7048   -2.3076 H       1  UNL1        0.0624
     38 H           1.6418    2.3803    0.2759 H       1  UNL1        0.0629
     39 H           4.2633    2.1368    0.1469 H       1  UNL1        0.0630
     40 H           6.8510   -3.3978    0.0399 H       1  UNL1        0.0830
     41 H           8.9013   -2.2511   -0.8728 H       1  UNL1        0.0655
     42 H           0.4653    0.9703    2.5232 H       1  UNL1        0.0813
     43 H          -1.7114    1.0315    3.7612 H       1  UNL1        0.1648
     44 H          -3.7004    0.2806    2.4411 H       1  UNL1        0.0813
@<TRIPOS>BOND
     1     1     2   ar
     2     2     3   ar
     3     3     4   ar
     4     4     5   ar
     5     5     6   ar
     6     6     7   ar
     7     7     8   ar
     8     4     9    1
     9     9    10   ar
    10    10    11   ar
    11    11    12   ar
    12    12    13    1
    13    13    14   ar
    14    14    15   ar
    15    15    16   ar
    16    16    17   ar
    17    16    18    1
    18    18    19   ar
    19    19    20   ar
    20    20    21   ar
    21    21    22   ar
    22    22    23   ar
    23    23    24   ar
    24    24    25   ar
    25    25    26   ar
    26    12    27   ar
    27    27    28   ar
    28    28    29   ar
    29    29    30   ar
    30    30    31   ar
    31     8     1   ar
    32    31     9   ar
    33     7     3   ar
    34    17    13   ar
    35    26    18   ar
    36    31    27   ar
    37    26    22   ar
    38     1    32    1
    39     2    33    1
    40     6    34    1
    41     8    35    1
    42    10    36    1
    43    11    37    1
    44    14    38    1
    45    15    39    1
    46    20    40    1
    47    21    41    1
    48    28    42    1
    49    29    43    1
    50    30    44    1
