@<TRIPOS>MOLECULE
*****
 43 48 0 0 0
SMALL
GASTEIGER

@<TRIPOS>ATOM
      1 C           7.0135    2.0385    0.5273 C.ar    1  UNL1        0.0028
      2 C           5.6619    1.6513    0.4049 C.ar    1  UNL1       -0.0355
      3 C           5.6424    0.2529    0.1499 C.ar    1  UNL1        0.0159
      4 C           4.7818   -0.7727   -0.0689 C.ar    1  UNL1        0.0467
      5 S           5.7757   -2.1987   -0.2913 S.2     1  UNL1       -0.0924
      6 C           7.2736   -1.3527   -0.0794 C.ar    1  UNL1        0.0002
      7 C           6.9833   -0.0576    0.1450 C.ar    1  UNL1        0.0542
      8 N           7.8723    0.9542    0.3631 N.ar    1  UNL1       -0.3602
      9 C           3.3154   -0.8111   -0.1332 C.ar    1  UNL1        0.0782
     10 C           2.5728   -1.9720   -0.3301 C.ar    1  UNL1       -0.0346
     11 C           1.1776   -1.8926   -0.3742 C.ar    1  UNL1       -0.0500
     12 C           0.5367   -0.6626   -0.2190 C.ar    1  UNL1        0.0075
     13 C           1.3609    0.4414   -0.0289 C.ar    1  UNL1        0.0365
     14 N           2.7166    0.3953    0.0172 N.ar    1  UNL1       -0.2538
     15 C          -0.9195   -0.5603   -0.2716 C.ar    1  UNL1        0.0306
     16 S          -1.7990    0.4908    0.8127 S.2     1  UNL1       -0.0855
     17 C          -3.3459    0.0448    0.1842 C.ar    1  UNL1        0.0438
     18 C          -4.5966    0.5790    0.6949 C.ar    1  UNL1       -0.0093
     19 C          -4.8785    1.9483    0.6036 C.ar    1  UNL1       -0.0535
     20 C          -6.0876    2.4563    1.0841 C.ar    1  UNL1       -0.0612
     21 C          -7.0241    1.6006    1.6615 C.ar    1  UNL1       -0.0617
     22 C          -6.7532    0.2371    1.7613 C.ar    1  UNL1       -0.0612
     23 C          -5.5449   -0.2719    1.2803 C.ar    1  UNL1       -0.0535
     24 C          -3.1580   -0.8544   -0.8047 C.ar    1  UNL1        0.0620
     25 N          -4.1092   -1.4515   -1.5829 N.ar    1  UNL1       -0.3597
     26 C          -3.3239   -2.2538   -2.4070 C.ar    1  UNL1        0.0028
     27 C          -1.9509   -2.1138   -2.1126 C.ar    1  UNL1       -0.0355
     28 C          -1.8414   -1.1827   -1.0452 C.ar    1  UNL1        0.0151
     29 H           7.4332    3.0171    0.7213 H       1  UNL1        0.0807
     30 H           4.8063    2.3087    0.4916 H       1  UNL1        0.0639
     31 H           8.2342   -1.8447   -0.1321 H       1  UNL1        0.0714
     32 H           8.8829    0.9027    0.3925 H       1  UNL1        0.1653
     33 H           3.0460   -2.9404   -0.4471 H       1  UNL1        0.0639
     34 H           0.6023   -2.8040   -0.5174 H       1  UNL1        0.0625
     35 H           0.9520    1.4419    0.0861 H       1  UNL1        0.0836
     36 H          -4.1594    2.6289    0.1526 H       1  UNL1        0.0624
     37 H          -6.2965    3.5205    1.0089 H       1  UNL1        0.0618
     38 H          -7.9631    1.9978    2.0388 H       1  UNL1        0.0618
     39 H          -7.4793   -0.4292    2.2201 H       1  UNL1        0.0618
     40 H          -5.3410   -1.3361    1.3792 H       1  UNL1        0.0624
     41 H          -5.1125   -1.3127   -1.5494 H       1  UNL1        0.1654
     42 H          -3.8085   -2.8653   -3.1576 H       1  UNL1        0.0807
     43 H          -1.1485   -2.6243   -2.6286 H       1  UNL1        0.0639
@<TRIPOS>BOND
     1     1     2   ar
     2     2     3   ar
     3     3     4   ar
     4     4     5   ar
     5     5     6   ar
     6     6     7   ar
     7     7     8   ar
     8     4     9    1
     9     9    10   ar
    10    10    11   ar
    11    11    12   ar
    12    12    13   ar
    13    13    14   ar
    14    12    15    1
    15    15    16   ar
    16    16    17   ar
    17    17    18    1
    18    18    19   ar
    19    19    20   ar
    20    20    21   ar
    21    21    22   ar
    22    22    23   ar
    23    17    24   ar
    24    24    25   ar
    25    25    26   ar
    26    26    27   ar
    27    27    28   ar
    28     8     1   ar
    29    14     9   ar
    30    28    15   ar
    31     7     3   ar
    32    23    18   ar
    33    28    24   ar
    34     1    29    1
    35     2    30    1
    36     6    31    1
    37     8    32    1
    38    10    33    1
    39    11    34    1
    40    13    35    1
    41    19    36    1
    42    20    37    1
    43    21    38    1
    44    22    39    1
    45    23    40    1
    46    25    41    1
    47    26    42    1
    48    27    43    1
