@<TRIPOS>MOLECULE
*****
 39 44 0 0 0
SMALL
GASTEIGER

@<TRIPOS>ATOM
      1 C          -6.5364   -1.4455   -1.9615 C.ar    1  UNL1        0.0028
      2 C          -5.1519   -1.2780   -1.7460 C.ar    1  UNL1       -0.0356
      3 C          -4.9885   -0.4236   -0.6156 C.ar    1  UNL1        0.0145
      4 C          -4.0418    0.1673    0.1623 C.ar    1  UNL1        0.0300
      5 S          -4.9224    1.0825    1.3780 S.2     1  UNL1       -0.0939
      6 C          -6.4818    0.6328    0.7898 C.ar    1  UNL1        0.0002
      7 C          -6.3009   -0.1702   -0.2741 C.ar    1  UNL1        0.0542
      8 N          -7.2857   -0.7415   -1.0259 N.ar    1  UNL1       -0.3602
      9 C          -2.5674    0.1521    0.1355 C.ar    1  UNL1        0.0075
     10 C          -1.8574   -0.5707   -0.8245 C.ar    1  UNL1       -0.0500
     11 C          -0.4556   -0.5751   -0.8368 C.ar    1  UNL1       -0.0345
     12 C           0.2463    0.1511    0.1213 C.ar    1  UNL1        0.0797
     13 N          -0.4158    0.8574    1.0592 N.ar    1  UNL1       -0.2538
     14 C          -1.7756    0.8445    1.0483 C.ar    1  UNL1        0.0365
     15 C           1.7230    0.2173    0.2022 C.ar    1  UNL1        0.0655
     16 S           2.6926   -0.6413   -0.9387 S.2     1  UNL1       -0.0818
     17 C           4.1995   -0.1341   -0.2742 C.ar    1  UNL1        0.0555
     18 C           5.4447   -0.5823   -0.8731 C.ar    1  UNL1        0.0475
     19 C           5.6254   -1.4127   -1.9729 C.ar    1  UNL1        0.0430
     20 N           6.9299   -1.6877   -2.3429 N.ar    1  UNL1       -0.2551
     21 C           7.7425   -1.0649   -1.5224 C.ar    1  UNL1        0.0653
     22 S           7.0063   -0.1373   -0.2915 S.2     1  UNL1       -0.0749
     23 C           3.9668    0.6868    0.8133 C.ar    1  UNL1        0.1051
     24 N           4.9601    1.2554    1.5613 N.ar    1  UNL1       -0.2507
     25 C           4.4656    2.0153    2.5693 C.ar    1  UNL1        0.0464
     26 C           3.1116    2.2089    2.8317 C.ar    1  UNL1        0.0464
     27 N           2.1008    1.6644    2.1157 N.ar    1  UNL1       -0.2507
     28 C           2.5518    0.8879    1.0859 C.ar    1  UNL1        0.1060
     29 H          -7.0503   -2.0210   -2.7210 H       1  UNL1        0.0807
     30 H          -4.3849   -1.7352   -2.3548 H       1  UNL1        0.0639
     31 H          -7.3999    0.9745    1.2464 H       1  UNL1        0.0714
     32 H          -8.2882   -0.6570   -0.9095 H       1  UNL1        0.1653
     33 H          -2.3693   -1.1479   -1.5860 H       1  UNL1        0.0625
     34 H           0.0470   -1.1532   -1.6042 H       1  UNL1        0.0639
     35 H          -2.2031    1.4456    1.8458 H       1  UNL1        0.0836
     36 H           4.8312   -1.8589   -2.5597 H       1  UNL1        0.0841
     37 H           8.8186   -1.1310   -1.6148 H       1  UNL1        0.0907
     38 H           5.2160    2.4903    3.1946 H       1  UNL1        0.0845
     39 H           2.7971    2.8348    3.6616 H       1  UNL1        0.0845
@<TRIPOS>BOND
     1     1     2   ar
     2     2     3   ar
     3     3     4   ar
     4     4     5   ar
     5     5     6   ar
     6     6     7   ar
     7     7     8   ar
     8     4     9    1
     9     9    10   ar
    10    10    11   ar
    11    11    12   ar
    12    12    13   ar
    13    13    14   ar
    14    12    15    1
    15    15    16   ar
    16    16    17   ar
    17    17    18    1
    18    18    19   ar
    19    19    20   ar
    20    20    21   ar
    21    21    22   ar
    22    17    23   ar
    23    23    24   ar
    24    24    25   ar
    25    25    26   ar
    26    26    27   ar
    27    27    28   ar
    28     8     1   ar
    29    14     9   ar
    30    28    15   ar
    31     7     3   ar
    32    22    18   ar
    33    28    23   ar
    34     1    29    1
    35     2    30    1
    36     6    31    1
    37     8    32    1
    38    10    33    1
    39    11    34    1
    40    14    35    1
    41    19    36    1
    42    21    37    1
    43    25    38    1
    44    26    39    1
