@<TRIPOS>MOLECULE
*****
 34 39 0 0 0
SMALL
GASTEIGER

@<TRIPOS>ATOM
      1 C          -5.2669    1.3974   -0.8817 C.ar    1  UNL1        0.0028
      2 C          -3.8732    1.2321   -0.7362 C.ar    1  UNL1       -0.0356
      3 C          -3.6464   -0.0213   -0.0912 C.ar    1  UNL1        0.0144
      4 C          -2.6587   -0.8391    0.3668 C.ar    1  UNL1        0.0286
      5 S          -3.4791   -2.2429    1.0416 S.2     1  UNL1       -0.0940
      6 C          -5.0651   -1.6692    0.6808 C.ar    1  UNL1        0.0002
      7 C          -4.9393   -0.4726    0.0802 C.ar    1  UNL1        0.0542
      8 N          -5.9634    0.3126   -0.3629 N.ar    1  UNL1       -0.3602
      9 C          -1.1794   -0.7317    0.3779 C.ar    1  UNL1       -0.0087
     10 C          -0.3609   -1.7365    0.9232 C.ar    1  UNL1       -0.0528
     11 C           1.0416   -1.6430    0.9378 C.ar    1  UNL1       -0.0513
     12 C           1.6635   -0.5096    0.3912 C.ar    1  UNL1        0.0096
     13 C           0.8551    0.4907   -0.1512 C.ar    1  UNL1        0.0481
     14 C          -0.5477    0.4015   -0.1682 C.ar    1  UNL1       -0.0295
     15 N           1.6825    1.4947   -0.6232 N.ar    1  UNL1       -0.3541
     16 C           3.0091    1.1862   -0.4082 C.ar    1  UNL1        0.0497
     17 C           4.1855    1.8931   -0.7142 C.ar    1  UNL1       -0.0356
     18 C           5.4321    1.3355   -0.3766 C.ar    1  UNL1       -0.0315
     19 C           5.4285    0.0733    0.2626 C.ar    1  UNL1        0.1006
     20 N           6.5183   -0.6137    0.6588 N.ar    1  UNL1       -0.1908
     21 S           5.9618   -2.0345    1.3539 S.2     1  UNL1        0.1165
     22 N           4.3056   -1.8405    1.1823 N.ar    1  UNL1       -0.1901
     23 C           4.2159   -0.6636    0.5823 C.ar    1  UNL1        0.1096
     24 C           2.9772   -0.0467    0.2149 C.ar    1  UNL1        0.0355
     25 H          -5.8211    2.2169   -1.3213 H       1  UNL1        0.0807
     26 H          -3.1415    1.9536   -1.0693 H       1  UNL1        0.0639
     27 H          -5.9581   -2.2271    0.9239 H       1  UNL1        0.0714
     28 H          -6.9576    0.1269   -0.3129 H       1  UNL1        0.1653
     29 H          -0.7892   -2.6357    1.3596 H       1  UNL1        0.0624
     30 H           1.6326   -2.4458    1.3707 H       1  UNL1        0.0624
     31 H          -1.1199    1.2100   -0.6031 H       1  UNL1        0.0644
     32 H           1.3534    2.3404   -1.0662 H       1  UNL1        0.1659
     33 H           4.1423    2.8615   -1.2067 H       1  UNL1        0.0639
     34 H           6.3626    1.8472   -0.5946 H       1  UNL1        0.0640
@<TRIPOS>BOND
     1     1     2   ar
     2     2     3   ar
     3     3     4   ar
     4     4     5   ar
     5     5     6   ar
     6     6     7   ar
     7     7     8   ar
     8     4     9    1
     9     9    10   ar
    10    10    11   ar
    11    11    12   ar
    12    12    13   ar
    13    13    14   ar
    14    13    15   ar
    15    15    16   ar
    16    16    17   ar
    17    17    18   ar
    18    18    19   ar
    19    19    20   ar
    20    20    21   ar
    21    21    22   ar
    22    22    23   ar
    23    23    24   ar
    24     8     1   ar
    25    14     9   ar
    26    24    16   ar
    27     7     3   ar
    28    24    12   ar
    29    23    19   ar
    30     1    25    1
    31     2    26    1
    32     6    27    1
    33     8    28    1
    34    10    29    1
    35    11    30    1
    36    14    31    1
    37    15    32    1
    38    17    33    1
    39    18    34    1
