@<TRIPOS>MOLECULE
*****
 47 54 0 0 0
SMALL
GASTEIGER

@<TRIPOS>ATOM
      1 C           6.9261    0.3612   -2.1080 C.ar    1  UNL1        0.0028
      2 C           5.5682    0.2131   -1.7517 C.ar    1  UNL1       -0.0356
      3 C           5.5145    0.0993   -0.3366 C.ar    1  UNL1        0.0144
      4 C           4.6389   -0.0633    0.6836 C.ar    1  UNL1        0.0286
      5 S           5.5822   -0.0977    2.1549 S.2     1  UNL1       -0.0940
      6 C           7.0985    0.0991    1.3335 C.ar    1  UNL1        0.0002
      7 C           6.8430    0.1849    0.0136 C.ar    1  UNL1        0.0542
      8 N           7.7550    0.3452   -0.9881 N.ar    1  UNL1       -0.3602
      9 C           3.1799   -0.1705    0.7097 C.ar    1  UNL1       -0.0086
     10 C           2.5244   -1.0836    1.5286 C.ar    1  UNL1       -0.0528
     11 C           1.1275   -1.1616    1.5206 C.ar    1  UNL1       -0.0514
     12 C           0.3240   -0.3240    0.7060 C.ar    1  UNL1        0.0088
     13 C           1.0084    0.5574   -0.1494 C.ar    1  UNL1        0.0722
     14 C           2.3962    0.6307   -0.1263 C.ar    1  UNL1       -0.0275
     15 N           0.3810    1.3522   -1.0136 N.ar    1  UNL1       -0.2543
     16 C          -0.9690    1.2717   -1.1044 C.ar    1  UNL1        0.0366
     17 C          -1.8226    0.4520   -0.3678 C.ar    1  UNL1        0.0099
     18 C          -3.3057    0.4158   -0.5912 C.ar    1  UNL1        0.0026
     19 C          -4.1158    0.9951   -1.6282 C.ar    1  UNL1        0.0282
     20 C          -3.7298    1.6538   -2.7738 C.ar    1  UNL1        0.1000
     21 O          -4.8182    2.0352   -3.5091 O.2     1  UNL1       -0.4698
     22 C          -5.9272    1.5900   -2.8585 C.ar    1  UNL1        0.0994
     23 C          -5.5485    0.9287   -1.7220 C.ar    1  UNL1        0.0205
     24 C          -6.4210    0.2997   -0.8562 C.ar    1  UNL1       -0.0504
     25 C          -5.6951   -0.3308    0.1633 C.ar    1  UNL1       -0.0527
     26 C          -4.2381   -0.2870    0.2816 C.ar    1  UNL1       -0.0074
     27 C          -3.5240   -0.9373    1.3061 C.ar    1  UNL1        0.0077
     28 C          -4.0883   -1.6609    2.3329 C.ar    1  UNL1        0.0100
     29 N          -3.0699   -2.0844    3.1458 N.ar    1  UNL1       -0.3659
     30 C          -1.8656   -1.6340    2.6556 C.ar    1  UNL1        0.0100
     31 C          -2.0980   -0.9592    1.4765 C.ar    1  UNL1        0.0084
     32 C          -1.1342   -0.3101    0.6385 C.ar    1  UNL1        0.0025
     33 H           7.3713    0.4766   -3.0881 H       1  UNL1        0.0807
     34 H           4.7390    0.1900   -2.4468 H       1  UNL1        0.0639
     35 H           8.0426    0.1387    1.8577 H       1  UNL1        0.0714
     36 H           8.7612    0.4272   -0.9100 H       1  UNL1        0.1653
     37 H           3.0844   -1.7636    2.1667 H       1  UNL1        0.0624
     38 H           0.6853   -1.9345    2.1348 H       1  UNL1        0.0624
     39 H           2.8757    1.3486   -0.7897 H       1  UNL1        0.0645
     40 H          -1.3492    1.9883   -1.8194 H       1  UNL1        0.0836
     41 H          -2.7939    1.9213   -3.2381 H       1  UNL1        0.1036
     42 H          -6.8709    1.8062   -3.3388 H       1  UNL1        0.1035
     43 H          -7.4966    0.2574   -0.9447 H       1  UNL1        0.0625
     44 H          -6.2659   -0.8888    0.9043 H       1  UNL1        0.0624
     45 H          -5.1118   -1.9018    2.5836 H       1  UNL1        0.0813
     46 H          -3.1876   -2.6145    4.0001 H       1  UNL1        0.1648
     47 H          -0.9804   -1.8314    3.2375 H       1  UNL1        0.0813
@<TRIPOS>BOND
     1     1     2   ar
     2     2     3   ar
     3     3     4   ar
     4     4     5   ar
     5     5     6   ar
     6     6     7   ar
     7     7     8   ar
     8     4     9    1
     9     9    10   ar
    10    10    11   ar
    11    11    12   ar
    12    12    13   ar
    13    13    14   ar
    14    13    15   ar
    15    15    16   ar
    16    16    17   ar
    17    17    18   ar
    18    18    19   ar
    19    19    20   ar
    20    20    21   ar
    21    21    22   ar
    22    22    23   ar
    23    23    24   ar
    24    24    25   ar
    25    25    26   ar
    26    26    27   ar
    27    27    28   ar
    28    28    29   ar
    29    29    30   ar
    30    30    31   ar
    31    31    32   ar
    32     8     1   ar
    33    14     9   ar
    34    32    17   ar
    35     7     3   ar
    36    32    12   ar
    37    26    18   ar
    38    31    27   ar
    39    23    19   ar
    40     1    33    1
    41     2    34    1
    42     6    35    1
    43     8    36    1
    44    10    37    1
    45    11    38    1
    46    14    39    1
    47    16    40    1
    48    20    41    1
    49    22    42    1
    50    24    43    1
    51    25    44    1
    52    28    45    1
    53    29    46    1
    54    30    47    1
