@<TRIPOS>MOLECULE
*****
 39 45 0 0 0
SMALL
GASTEIGER

@<TRIPOS>ATOM
      1 SI          2.6695   -2.1086   -3.1070 Si      1  UNL1        0.0000
      2 C           3.5130   -1.3986   -1.6065 C.2     1  UNL1        0.0000
      3 C           2.6301   -0.7960   -0.7893 C.ar    1  UNL1        0.0000
      4 C           2.8993   -0.1471    0.4399 C.ar    1  UNL1        0.0000
      5 C           4.0601    0.0972    1.1990 C.ar    1  UNL1        0.0000
      6 S           5.7721   -0.1652    1.2115 S.2     1  UNL1        0.0000
      7 C           5.8957    0.6693    2.7220 C.ar    1  UNL1        0.0000
      8 C           4.6926    1.1335    3.2144 C.ar    1  UNL1        0.0000
      9 C           3.6710    0.7842    2.3103 C.ar    1  UNL1        0.0000
     10 O           2.3188    0.9983    2.3122 O.2     1  UNL1        0.0000
     11 C           1.8825    0.4235    1.1643 C.ar    1  UNL1        0.0000
     12 C           0.4789    0.4387    0.7898 C.ar    1  UNL1        0.0000
     13 C          -0.5437    1.0441    1.5679 C.ar    1  UNL1        0.0000
     14 N          -0.4187    1.6874    2.7423 N.ar    1  UNL1        0.0000
     15 S          -1.9236    2.2029    3.1872 S.2     1  UNL1        0.0000
     16 N          -2.8273    1.6315    1.9257 N.ar    1  UNL1        0.0000
     17 C          -1.9845    1.0056    1.0847 C.ar    1  UNL1        0.0000
     18 C          -2.3209    0.3638   -0.1455 C.ar    1  UNL1        0.0000
     19 C          -1.2500   -0.2138   -0.8699 C.ar    1  UNL1        0.0000
     20 C           0.1019   -0.1924   -0.4412 C.ar    1  UNL1        0.0000
     21 C           1.2035   -0.8271   -1.2524 C.ar    1  UNL1        0.0000
     22 C           1.0398   -1.4654   -2.4320 C.2     1  UNL1        0.0000
     23 C          -3.6927    0.3153   -0.6421 C.2     1  UNL1        0.0000
     24 C          -4.1028    0.6558   -1.8836 C.2     1  UNL1        0.0000
     25 C          -5.5173    0.4552   -2.1558 C.2     1  UNL1        0.0000
     26 C          -6.2308   -0.0572   -1.1376 C.2     1  UNL1        0.0000
     27 SI         -5.1504   -0.3444    0.3795 Si      1  UNL1        0.0000
     28 H           2.7092   -3.5897   -3.1396 H       1  UNL1        0.0000
     29 H           3.0581   -1.4228   -4.3620 H       1  UNL1        0.0000
     30 H           4.5781   -1.4913   -1.4664 H       1  UNL1        0.0000
     31 H           6.8721    0.7738    3.1758 H       1  UNL1        0.0000
     32 H           4.5609    1.6762    4.1400 H       1  UNL1        0.0000
     33 H          -1.4983   -0.7077   -1.8089 H       1  UNL1        0.0000
     34 H           0.1343   -1.6343   -2.9902 H       1  UNL1        0.0000
     35 H          -3.4524    1.0487   -2.6564 H       1  UNL1        0.0000
     36 H          -5.9399    0.7063   -3.1210 H       1  UNL1        0.0000
     37 H          -7.2857   -0.2814   -1.1278 H       1  UNL1        0.0000
     38 H          -5.5870    0.5237    1.4999 H       1  UNL1        0.0000
     39 H          -5.0157   -1.7921    0.6824 H       1  UNL1        0.0000
@<TRIPOS>BOND
     1     1     2    1
     2     2     3    2
     3     3     4   ar
     4     4     5   ar
     5     5     6   ar
     6     6     7   ar
     7     7     8   ar
     8     8     9   ar
     9     9    10   ar
    10    10    11   ar
    11    11    12   ar
    12    12    13   ar
    13    13    14   ar
    14    14    15   ar
    15    15    16   ar
    16    16    17   ar
    17    17    18   ar
    18    18    19   ar
    19    19    20   ar
    20    20    21   ar
    21    21    22    2
    22    18    23    1
    23    23    24    2
    24    24    25    1
    25    25    26    2
    26    26    27    1
    27    22     1    1
    28    27    23    1
    29    21     3   ar
    30    11     4   ar
    31    20    12   ar
    32     9     5   ar
    33    17    13   ar
    34     1    28    1
    35     1    29    1
    36     2    30    1
    37     7    31    1
    38     8    32    1
    39    19    33    1
    40    22    34    1
    41    24    35    1
    42    25    36    1
    43    26    37    1
    44    27    38    1
    45    27    39    1
