@<TRIPOS>MOLECULE
*****
 42 48 0 0 0
SMALL
GASTEIGER

@<TRIPOS>ATOM
      1 C           6.5628   -1.5037   -1.5545 C.ar    1  UNL1        0.0028
      2 C           5.1724   -1.3651   -1.3535 C.ar    1  UNL1       -0.0356
      3 C           4.9862   -0.3226   -0.4066 C.ar    1  UNL1        0.0144
      4 C           4.0149    0.3570    0.2480 C.ar    1  UNL1        0.0286
      5 S           4.8180    1.5360    1.2570 S.2     1  UNL1       -0.0940
      6 C           6.4103    1.0700    0.7469 C.ar    1  UNL1        0.0002
      7 C           6.2800    0.0637   -0.1392 C.ar    1  UNL1        0.0542
      8 N           7.2857   -0.5947   -0.7841 N.ar    1  UNL1       -0.3602
      9 C           2.5588    0.2207    0.2420 C.ar    1  UNL1       -0.0086
     10 C           1.9720   -1.0394    0.2664 C.ar    1  UNL1       -0.0528
     11 C           0.5792   -1.1704    0.2478 C.ar    1  UNL1       -0.0514
     12 C          -0.2905   -0.0513    0.1751 C.ar    1  UNL1        0.0087
     13 C           0.3251    1.2143    0.2132 C.ar    1  UNL1        0.0722
     14 C           1.7103    1.3312    0.2239 C.ar    1  UNL1       -0.0275
     15 N          -0.3671    2.3502    0.2589 N.ar    1  UNL1       -0.2543
     16 C          -1.7173    2.2854    0.3153 C.ar    1  UNL1        0.0366
     17 C          -2.5094    1.1363    0.2677 C.ar    1  UNL1        0.0106
     18 C          -3.9825    1.2170    0.3614 C.ar    1  UNL1        0.0100
     19 C          -4.7033    2.4087    0.5804 C.ar    1  UNL1        0.0359
     20 N          -6.0532    2.5426    0.6842 N.ar    1  UNL1       -0.2626
     21 C          -6.7871    1.4254    0.5680 C.ar    1  UNL1        0.0282
     22 C          -6.2354    0.1819    0.3505 C.ar    1  UNL1       -0.0353
     23 C          -4.8269    0.0791    0.2470 C.ar    1  UNL1       -0.0061
     24 C          -4.0964   -1.1070   -0.0065 C.ar    1  UNL1       -0.0025
     25 C          -4.7064   -2.3242   -0.2204 C.ar    1  UNL1       -0.0160
     26 S          -3.5783   -3.5459   -0.6107 S.2     1  UNL1       -0.1038
     27 C          -2.2690   -2.4445   -0.4986 C.ar    1  UNL1       -0.0160
     28 C          -2.6502   -1.1863   -0.0847 C.ar    1  UNL1       -0.0019
     29 C          -1.7522   -0.0786    0.1160 C.ar    1  UNL1        0.0016
     30 H           7.1005   -2.1864   -2.2002 H       1  UNL1        0.0807
     31 H           4.4091   -1.9518   -1.8470 H       1  UNL1        0.0639
     32 H           7.3034    1.5501    1.1206 H       1  UNL1        0.0714
     33 H           8.2835   -0.4403   -0.7070 H       1  UNL1        0.1653
     34 H           2.5868   -1.9352    0.3279 H       1  UNL1        0.0624
     35 H           0.1951   -2.1773    0.3514 H       1  UNL1        0.0624
     36 H           2.1314    2.3352    0.2206 H       1  UNL1        0.0645
     37 H          -2.1509    3.2787    0.3913 H       1  UNL1        0.0836
     38 H          -4.2022    3.3653    0.6994 H       1  UNL1        0.0836
     39 H          -7.8612    1.5595    0.6548 H       1  UNL1        0.0830
     40 H          -6.8874   -0.6782    0.2619 H       1  UNL1        0.0639
     41 H          -5.7558   -2.5800   -0.2033 H       1  UNL1        0.0700
     42 H          -1.3029   -2.8252   -0.7815 H       1  UNL1        0.0700
@<TRIPOS>BOND
     1     1     2   ar
     2     2     3   ar
     3     3     4   ar
     4     4     5   ar
     5     5     6   ar
     6     6     7   ar
     7     7     8   ar
     8     4     9    1
     9     9    10   ar
    10    10    11   ar
    11    11    12   ar
    12    12    13   ar
    13    13    14   ar
    14    13    15   ar
    15    15    16   ar
    16    16    17   ar
    17    17    18   ar
    18    18    19   ar
    19    19    20   ar
    20    20    21   ar
    21    21    22   ar
    22    22    23   ar
    23    23    24   ar
    24    24    25   ar
    25    25    26   ar
    26    26    27   ar
    27    27    28   ar
    28    28    29   ar
    29     8     1   ar
    30    14     9   ar
    31    29    17   ar
    32     7     3   ar
    33    29    12   ar
    34    23    18   ar
    35    28    24   ar
    36     1    30    1
    37     2    31    1
    38     6    32    1
    39     8    33    1
    40    10    34    1
    41    11    35    1
    42    14    36    1
    43    16    37    1
    44    19    38    1
    45    21    39    1
    46    22    40    1
    47    25    41    1
    48    27    42    1
