@<TRIPOS>MOLECULE
*****
 37 43 0 0 0
SMALL
GASTEIGER

@<TRIPOS>ATOM
      1 C          -5.7355   -0.6777   -1.2150 C.ar    1  UNL1        0.0028
      2 C          -4.3344   -0.5690   -1.0806 C.ar    1  UNL1       -0.0356
      3 C          -4.0832    0.3114    0.0055 C.ar    1  UNL1        0.0144
      4 C          -3.0685    0.8802    0.6989 C.ar    1  UNL1        0.0285
      5 S          -3.8001    1.8810    1.9309 S.2     1  UNL1       -0.0940
      6 C          -5.4240    1.4972    1.4526 C.ar    1  UNL1        0.0002
      7 C          -5.3554    0.6460    0.4107 C.ar    1  UNL1        0.0542
      8 N          -6.4033    0.0949   -0.2669 N.ar    1  UNL1       -0.3602
      9 C          -1.6146    0.7520    0.5810 C.ar    1  UNL1       -0.0100
     10 C          -0.7707    1.8715    0.6822 C.ar    1  UNL1       -0.0529
     11 C           0.6193    1.7525    0.5594 C.ar    1  UNL1       -0.0514
     12 C           1.1968    0.4945    0.3265 C.ar    1  UNL1        0.0083
     13 C           2.6022    0.3412    0.1970 C.ar    1  UNL1        0.0580
     14 N           3.6588    1.2278    0.2517 N.ar    1  UNL1       -0.3532
     15 C           4.8457    0.5389    0.0574 C.ar    1  UNL1        0.0547
     16 C           6.2301    0.8528    0.0003 C.ar    1  UNL1       -0.0307
     17 C           6.9589   -0.2948   -0.2290 C.ar    1  UNL1       -0.0217
     18 S           6.0083   -1.7218   -0.3738 S.2     1  UNL1       -0.0944
     19 C           4.5719   -0.7940   -0.1242 C.ar    1  UNL1        0.0467
     20 C           3.1798   -0.8847   -0.0325 C.ar    1  UNL1        0.0427
     21 C           2.4324   -2.0809   -0.1577 C.ar    1  UNL1        0.1107
     22 N           2.9472   -3.2782   -0.3790 N.ar    1  UNL1       -0.1901
     23 S           1.5869   -4.2539   -0.4246 S.2     1  UNL1        0.1165
     24 N           0.3801   -3.1217   -0.1628 N.ar    1  UNL1       -0.1901
     25 C           0.9887   -1.9227   -0.0247 C.ar    1  UNL1        0.1083
     26 C           0.3558   -0.6523    0.2165 C.ar    1  UNL1        0.0129
     27 C          -1.0417   -0.5068    0.3453 C.ar    1  UNL1       -0.0436
     28 H          -6.3158   -1.2536   -1.9246 H       1  UNL1        0.0807
     29 H          -3.6063   -1.0717   -1.7038 H       1  UNL1        0.0639
     30 H          -6.2895    1.9071    1.9532 H       1  UNL1        0.0714
     31 H          -7.3934    0.2289   -0.1030 H       1  UNL1        0.1653
     32 H          -1.1924    2.8613    0.8478 H       1  UNL1        0.0624
     33 H           1.2277    2.6480    0.6445 H       1  UNL1        0.0624
     34 H           3.6169    2.2268    0.4069 H       1  UNL1        0.1659
     35 H           6.6647    1.8370    0.1169 H       1  UNL1        0.0644
     36 H           8.0332   -0.3788   -0.3230 H       1  UNL1        0.0694
     37 H          -1.6765   -1.3885    0.2711 H       1  UNL1        0.0630
@<TRIPOS>BOND
     1     1     2   ar
     2     2     3   ar
     3     3     4   ar
     4     4     5   ar
     5     5     6   ar
     6     6     7   ar
     7     7     8   ar
     8     4     9    1
     9     9    10   ar
    10    10    11   ar
    11    11    12   ar
    12    12    13   ar
    13    13    14   ar
    14    14    15   ar
    15    15    16   ar
    16    16    17   ar
    17    17    18   ar
    18    18    19   ar
    19    19    20   ar
    20    20    21   ar
    21    21    22   ar
    22    22    23   ar
    23    23    24   ar
    24    24    25   ar
    25    25    26   ar
    26    26    27   ar
    27     8     1   ar
    28    27     9   ar
    29     7     3   ar
    30    26    12   ar
    31    20    13   ar
    32    25    21   ar
    33    19    15   ar
    34     1    28    1
    35     2    29    1
    36     6    30    1
    37     8    31    1
    38    10    32    1
    39    11    33    1
    40    14    34    1
    41    16    35    1
    42    17    36    1
    43    27    37    1
