@<TRIPOS>MOLECULE
*****
 36 41 0 0 0
SMALL
GASTEIGER

@<TRIPOS>ATOM
      1 C          -6.3113    1.5780   -1.6845 C.ar    1  UNL1        0.0028
      2 C          -4.9453    1.3445   -1.4180 C.ar    1  UNL1       -0.0355
      3 C          -4.8710    0.3613   -0.3898 C.ar    1  UNL1        0.0150
      4 C          -3.9865   -0.3433    0.3609 C.ar    1  UNL1        0.0366
      5 S          -4.9397   -1.3678    1.4152 S.2     1  UNL1       -0.0934
      6 C          -6.4589   -0.8076    0.8051 C.ar    1  UNL1        0.0002
      7 C          -6.2047    0.1086   -0.1478 C.ar    1  UNL1        0.0542
      8 N          -7.1308    0.7937   -0.8787 N.ar    1  UNL1       -0.3602
      9 C          -2.5446   -0.3239    0.3643 C.ar    1  UNL1        0.0467
     10 C          -1.6989    0.4409   -0.4202 C.ar    1  UNL1        0.0438
     11 N          -0.3422    0.2680   -0.2173 N.ar    1  UNL1       -0.2436
     12 C          -0.1459   -0.6304    0.7240 C.ar    1  UNL1        0.1438
     13 S          -1.5735   -1.2996    1.3992 S.2     1  UNL1       -0.0637
     14 C           1.1758   -1.0158    1.1483 C.ar    1  UNL1        0.1606
     15 C           1.5749   -1.9298    2.1093 C.ar    1  UNL1       -0.0132
     16 C           2.9918   -1.9277    2.1304 C.ar    1  UNL1       -0.0146
     17 C           3.4165   -1.0131    1.1825 C.ar    1  UNL1        0.1429
     18 O           2.3055   -0.4680    0.5949 O.2     1  UNL1       -0.4522
     19 C           4.7475   -0.6288    0.8032 C.ar    1  UNL1        0.0626
     20 S           6.1669   -1.2990    1.5267 S.2     1  UNL1       -0.0919
     21 C           7.2375   -0.3572    0.5609 C.ar    1  UNL1       -0.0093
     22 C           6.5294    0.4437   -0.2873 C.ar    1  UNL1        0.0270
     23 S           7.0821    1.6338   -1.5210 S.2     1  UNL1       -0.0961
     24 C           5.3684    1.8909   -1.8178 C.ar    1  UNL1       -0.0231
     25 C           4.4846    1.1330   -1.0410 C.ar    1  UNL1       -0.0458
     26 C           5.1543    0.2705   -0.1292 C.ar    1  UNL1        0.0069
     27 H          -6.7677    2.2533   -2.3974 H       1  UNL1        0.0807
     28 H          -4.1303    1.8426   -1.9248 H       1  UNL1        0.0639
     29 H          -7.4065   -1.1750    1.1732 H       1  UNL1        0.0714
     30 H          -8.1402    0.7286   -0.8273 H       1  UNL1        0.1653
     31 H          -2.0120    1.1546   -1.1706 H       1  UNL1        0.0841
     32 H           0.9243   -2.5326    2.7280 H       1  UNL1        0.0656
     33 H           3.6276   -2.5275    2.7673 H       1  UNL1        0.0656
     34 H           8.3130   -0.4251    0.6496 H       1  UNL1        0.0705
     35 H           5.1021    2.6136   -2.5771 H       1  UNL1        0.0694
     36 H           3.4078    1.2126   -1.1419 H       1  UNL1        0.0629
@<TRIPOS>BOND
     1     1     2   ar
     2     2     3   ar
     3     3     4   ar
     4     4     5   ar
     5     5     6   ar
     6     6     7   ar
     7     7     8   ar
     8     4     9    1
     9     9    10   ar
    10    10    11   ar
    11    11    12   ar
    12    12    13   ar
    13    12    14    1
    14    14    15   ar
    15    15    16   ar
    16    16    17   ar
    17    17    18   ar
    18    17    19    1
    19    19    20   ar
    20    20    21   ar
    21    21    22   ar
    22    22    23   ar
    23    23    24   ar
    24    24    25   ar
    25    25    26   ar
    26     8     1   ar
    27    13     9   ar
    28    18    14   ar
    29    26    19   ar
    30     7     3   ar
    31    26    22   ar
    32     1    27    1
    33     2    28    1
    34     6    29    1
    35     8    30    1
    36    10    31    1
    37    15    32    1
    38    16    33    1
    39    21    34    1
    40    24    35    1
    41    25    36    1
