@<TRIPOS>MOLECULE
*****
 37 42 0 0 0
SMALL
GASTEIGER

@<TRIPOS>ATOM
      1 C          -6.0449    1.6093    0.6216 C.ar    1  UNL1        0.0028
      2 C          -4.6545    1.3800    0.5484 C.ar    1  UNL1       -0.0356
      3 C          -4.4580    0.0081    0.2110 C.ar    1  UNL1        0.0145
      4 C          -3.4888   -0.9162   -0.0267 C.ar    1  UNL1        0.0300
      5 S          -4.3334   -2.4166   -0.3825 S.2     1  UNL1       -0.0939
      6 C          -5.9095   -1.7376   -0.1973 C.ar    1  UNL1        0.0002
      7 C          -5.7600   -0.4386    0.1180 C.ar    1  UNL1        0.0542
      8 N          -6.7666    0.4532    0.3482 N.ar    1  UNL1       -0.3602
      9 C          -2.0155   -0.8487   -0.0284 C.ar    1  UNL1        0.0095
     10 C          -1.1999   -1.9398   -0.3052 C.ar    1  UNL1        0.0366
     11 N           0.1572   -1.9119   -0.3151 N.ar    1  UNL1       -0.2522
     12 C           0.7775   -0.7412   -0.0366 C.ar    1  UNL1        0.0983
     13 C           0.0524    0.4257    0.2576 C.ar    1  UNL1        0.0904
     14 C          -1.3346    0.3403    0.2539 C.ar    1  UNL1       -0.0245
     15 N           0.6268    1.6069    0.5392 N.ar    1  UNL1       -0.2528
     16 C           1.9767    1.6662    0.5370 C.ar    1  UNL1        0.0368
     17 C           2.8256    0.5896    0.2633 C.ar    1  UNL1        0.0144
     18 C           4.2590    0.6490    0.2601 C.ar    1  UNL1        0.0277
     19 C           5.0367    1.7881    0.5290 C.ar    1  UNL1        0.0374
     20 N           6.3880    1.8263    0.5216 N.ar    1  UNL1       -0.2625
     21 C           7.0165    0.6745    0.2323 C.ar    1  UNL1        0.0296
     22 C           6.3518   -0.5033   -0.0473 C.ar    1  UNL1       -0.0176
     23 C           4.9697   -0.5265   -0.0359 C.ar    1  UNL1        0.0745
     24 N           4.3581   -1.6847   -0.3115 N.ar    1  UNL1       -0.2542
     25 C           3.0033   -1.7145   -0.3020 C.ar    1  UNL1        0.0381
     26 C           2.1793   -0.6266   -0.0260 C.ar    1  UNL1        0.0297
     27 H          -6.5805    2.5219    0.8510 H       1  UNL1        0.0807
     28 H          -3.9058    2.1398    0.7246 H       1  UNL1        0.0639
     29 H          -6.8144   -2.3145   -0.3270 H       1  UNL1        0.0714
     30 H          -7.7655    0.2886    0.3204 H       1  UNL1        0.1653
     31 H          -1.6043   -2.9208   -0.5400 H       1  UNL1        0.0836
     32 H          -1.8797    1.2495    0.4829 H       1  UNL1        0.0646
     33 H           2.3593    2.6554    0.7740 H       1  UNL1        0.0836
     34 H           4.5856    2.7466    0.7688 H       1  UNL1        0.0836
     35 H           8.1017    0.7199    0.2300 H       1  UNL1        0.0830
     36 H           6.9087   -1.4059   -0.2748 H       1  UNL1        0.0654
     37 H           2.5818   -2.6915   -0.5356 H       1  UNL1        0.0836
@<TRIPOS>BOND
     1     1     2   ar
     2     2     3   ar
     3     3     4   ar
     4     4     5   ar
     5     5     6   ar
     6     6     7   ar
     7     7     8   ar
     8     4     9    1
     9     9    10   ar
    10    10    11   ar
    11    11    12   ar
    12    12    13   ar
    13    13    14   ar
    14    13    15   ar
    15    15    16   ar
    16    16    17   ar
    17    17    18   ar
    18    18    19   ar
    19    19    20   ar
    20    20    21   ar
    21    21    22   ar
    22    22    23   ar
    23    23    24   ar
    24    24    25   ar
    25    25    26   ar
    26     8     1   ar
    27    14     9   ar
    28    26    17   ar
    29     7     3   ar
    30    26    12   ar
    31    23    18   ar
    32     1    27    1
    33     2    28    1
    34     6    29    1
    35     8    30    1
    36    10    31    1
    37    14    32    1
    38    16    33    1
    39    19    34    1
    40    21    35    1
    41    22    36    1
    42    25    37    1
