@<TRIPOS>MOLECULE
*****
 43 50 0 0 0
SMALL
GASTEIGER

@<TRIPOS>ATOM
      1 C           7.0063   -2.3923    0.5314 C.ar    1  UNL1        0.0028
      2 C           5.6175   -2.1619    0.6274 C.ar    1  UNL1       -0.0356
      3 C           5.3144   -1.0043   -0.1498 C.ar    1  UNL1        0.0145
      4 C           4.2859   -0.2011   -0.5347 C.ar    1  UNL1        0.0300
      5 S           5.0012    1.0351   -1.5608 S.2     1  UNL1       -0.0939
      6 C           6.6080    0.4212   -1.4215 C.ar    1  UNL1        0.0002
      7 C           6.5628   -0.6653   -0.6298 C.ar    1  UNL1        0.0542
      8 N           7.6259   -1.4415   -0.2710 N.ar    1  UNL1       -0.3602
      9 C           2.8371   -0.2166   -0.2500 C.ar    1  UNL1        0.0085
     10 C           2.2682   -1.1934    0.5612 C.ar    1  UNL1        0.0365
     11 N           0.9619   -1.3168    0.8966 N.ar    1  UNL1       -0.2532
     12 C           0.1207   -0.3800    0.3804 C.ar    1  UNL1        0.0864
     13 C           0.5824    0.6412   -0.4426 C.ar    1  UNL1        0.0394
     14 C           1.9495    0.7340   -0.7675 C.ar    1  UNL1       -0.0362
     15 S          -0.6881    1.6739   -0.9470 S.2     1  UNL1       -0.0860
     16 C          -1.9121    0.8012   -0.0872 C.ar    1  UNL1        0.0310
     17 C          -1.2831   -0.2598    0.5587 C.ar    1  UNL1        0.0240
     18 C          -2.1132   -1.1386    1.3486 C.ar    1  UNL1       -0.0000
     19 C          -1.6741   -2.2268    2.0499 C.ar    1  UNL1       -0.0159
     20 S          -3.0007   -2.9768    2.8406 S.2     1  UNL1       -0.1038
     21 C          -4.1119   -1.8174    2.2149 C.ar    1  UNL1       -0.0160
     22 C          -3.5050   -0.8673    1.4157 C.ar    1  UNL1       -0.0025
     23 C          -4.2150    0.1877    0.7894 C.ar    1  UNL1       -0.0079
     24 C          -5.6564    0.4108    0.9007 C.ar    1  UNL1       -0.0527
     25 C          -6.3519    1.4631    0.2736 C.ar    1  UNL1       -0.0504
     26 C          -5.4757    2.2470   -0.4566 C.ar    1  UNL1        0.0205
     27 C          -5.8235    3.3510   -1.1865 C.ar    1  UNL1        0.0994
     28 O          -4.7091    3.8727   -1.7728 O.2     1  UNL1       -0.4698
     29 C          -3.6474    3.0898   -1.4089 C.ar    1  UNL1        0.1000
     30 C          -4.0599    2.0638   -0.5918 C.ar    1  UNL1        0.0286
     31 C          -3.3196    1.0295    0.0139 C.ar    1  UNL1        0.0078
     32 H           7.6070   -3.1731    0.9808 H       1  UNL1        0.0807
     33 H           4.9422   -2.7810    1.2012 H       1  UNL1        0.0639
     34 H           7.4544    0.8805   -1.9123 H       1  UNL1        0.0714
     35 H           8.5974   -1.3302   -0.5345 H       1  UNL1        0.1653
     36 H           2.8781   -1.9722    1.0072 H       1  UNL1        0.0836
     37 H           2.2805    1.5418   -1.4120 H       1  UNL1        0.0636
     38 H          -0.6805   -2.6374    2.1583 H       1  UNL1        0.0700
     39 H          -5.1514   -1.9237    2.4876 H       1  UNL1        0.0700
     40 H          -6.2521   -0.2720    1.5051 H       1  UNL1        0.0624
     41 H          -7.4179    1.6145    0.3657 H       1  UNL1        0.0625
     42 H          -6.7472    3.8742   -1.3892 H       1  UNL1        0.1035
     43 H          -2.7057    3.4167   -1.8222 H       1  UNL1        0.1036
@<TRIPOS>BOND
     1     1     2   ar
     2     2     3   ar
     3     3     4   ar
     4     4     5   ar
     5     5     6   ar
     6     6     7   ar
     7     7     8   ar
     8     4     9    1
     9     9    10   ar
    10    10    11   ar
    11    11    12   ar
    12    12    13   ar
    13    13    14   ar
    14    13    15   ar
    15    15    16   ar
    16    16    17   ar
    17    17    18   ar
    18    18    19   ar
    19    19    20   ar
    20    20    21   ar
    21    21    22   ar
    22    22    23   ar
    23    23    24   ar
    24    24    25   ar
    25    25    26   ar
    26    26    27   ar
    27    27    28   ar
    28    28    29   ar
    29    29    30   ar
    30    30    31   ar
    31     8     1   ar
    32    14     9   ar
    33    31    16   ar
    34     7     3   ar
    35    17    12   ar
    36    22    18   ar
    37    31    23   ar
    38    30    26   ar
    39     1    32    1
    40     2    33    1
    41     6    34    1
    42     8    35    1
    43    10    36    1
    44    14    37    1
    45    19    38    1
    46    21    39    1
    47    24    40    1
    48    25    41    1
    49    27    42    1
    50    29    43    1
