@<TRIPOS>MOLECULE
*****
 44 51 0 0 0
SMALL
GASTEIGER

@<TRIPOS>ATOM
      1 C           6.5361   -2.2300   -1.4883 C.ar    1  UNL1        0.0028
      2 C           5.1921   -1.8669   -1.2586 C.ar    1  UNL1       -0.0356
      3 C           5.1870   -0.7864   -0.3271 C.ar    1  UNL1        0.0145
      4 C           4.3558    0.0540    0.3461 C.ar    1  UNL1        0.0300
      5 S           5.3994    1.0930    1.3068 S.2     1  UNL1       -0.0939
      6 C           6.8649    0.3594    0.7651 C.ar    1  UNL1        0.0002
      7 C           6.5371   -0.6184   -0.0984 C.ar    1  UNL1        0.0542
      8 N           7.4099   -1.4387   -0.7517 N.ar    1  UNL1       -0.3602
      9 C           2.8889    0.2010    0.3819 C.ar    1  UNL1        0.0080
     10 C           2.2315    1.1468    1.1566 C.ar    1  UNL1        0.0365
     11 N           0.8830    1.3133    1.2166 N.ar    1  UNL1       -0.2537
     12 C           0.0767    0.5167    0.4797 C.ar    1  UNL1        0.0794
     13 C           0.6471   -0.4703   -0.3361 C.ar    1  UNL1        0.0016
     14 C          -0.1699   -1.3013   -1.1033 C.ar    1  UNL1       -0.0519
     15 C          -1.5623   -1.1702   -1.0766 C.ar    1  UNL1       -0.0527
     16 C          -2.2323   -0.2122   -0.2920 C.ar    1  UNL1       -0.0053
     17 C          -3.7300   -0.0720   -0.2640 C.ar    1  UNL1        0.0187
     18 C          -4.6841   -0.8769   -1.0173 C.ar    1  UNL1        0.1081
     19 N          -4.3984   -1.8824   -1.8666 N.ar    1  UNL1       -0.1901
     20 S          -5.8187   -2.4747   -2.4654 S.2     1  UNL1        0.1165
     21 N          -6.9035   -1.4987   -1.6911 N.ar    1  UNL1       -0.1908
     22 C          -6.1883   -0.6611   -0.9245 C.ar    1  UNL1        0.1005
     23 C          -6.7568    0.3318   -0.1035 C.ar    1  UNL1       -0.0329
     24 C          -5.8527    1.1060    0.6201 C.ar    1  UNL1       -0.0512
     25 C          -4.4347    0.9129    0.5415 C.ar    1  UNL1       -0.0044
     26 C          -3.5161    1.6902    1.2688 C.ar    1  UNL1        0.0283
     27 C          -3.8021    2.7168    2.1363 C.ar    1  UNL1        0.1000
     28 O          -2.6494    3.2290    2.6494 O.2     1  UNL1       -0.4698
     29 C          -1.6180    2.5229    2.1045 C.ar    1  UNL1        0.1001
     30 C          -2.0966    1.5614    1.2457 C.ar    1  UNL1        0.0302
     31 C          -1.3501    0.6262    0.4856 C.ar    1  UNL1        0.0194
     32 C           2.0476   -0.6151   -0.3741 C.ar    1  UNL1       -0.0429
     33 H           6.9405   -3.0029   -2.1297 H       1  UNL1        0.0807
     34 H           4.3464   -2.3497   -1.7274 H       1  UNL1        0.0639
     35 H           7.8398    0.6812    1.1031 H       1  UNL1        0.0714
     36 H           8.4211   -1.4459   -0.6952 H       1  UNL1        0.1653
     37 H           2.7674    1.8459    1.7926 H       1  UNL1        0.0836
     38 H           0.2643   -2.0707   -1.7398 H       1  UNL1        0.0624
     39 H          -2.1094   -1.8635   -1.7083 H       1  UNL1        0.0624
     40 H          -7.8283    0.4785   -0.0435 H       1  UNL1        0.0640
     41 H          -6.2615    1.8830    1.2647 H       1  UNL1        0.0624
     42 H          -4.7059    3.1918    2.4898 H       1  UNL1        0.1036
     43 H          -0.6347    2.8313    2.4314 H       1  UNL1        0.1036
     44 H           2.4674   -1.3852   -1.0121 H       1  UNL1        0.0631
@<TRIPOS>BOND
     1     1     2   ar
     2     2     3   ar
     3     3     4   ar
     4     4     5   ar
     5     5     6   ar
     6     6     7   ar
     7     7     8   ar
     8     4     9    1
     9     9    10   ar
    10    10    11   ar
    11    11    12   ar
    12    12    13   ar
    13    13    14   ar
    14    14    15   ar
    15    15    16   ar
    16    16    17   ar
    17    17    18   ar
    18    18    19   ar
    19    19    20   ar
    20    20    21   ar
    21    21    22   ar
    22    22    23   ar
    23    23    24   ar
    24    24    25   ar
    25    25    26   ar
    26    26    27   ar
    27    27    28   ar
    28    28    29   ar
    29    29    30   ar
    30    30    31   ar
    31    13    32   ar
    32     8     1   ar
    33    32     9   ar
    34     7     3   ar
    35    31    12   ar
    36    31    16   ar
    37    25    17   ar
    38    30    26   ar
    39    22    18   ar
    40     1    33    1
    41     2    34    1
    42     6    35    1
    43     8    36    1
    44    10    37    1
    45    14    38    1
    46    15    39    1
    47    23    40    1
    48    24    41    1
    49    27    42    1
    50    29    43    1
    51    32    44    1
