@<TRIPOS>MOLECULE
*****
 34 39 0 0 0
SMALL
GASTEIGER

@<TRIPOS>ATOM
      1 C          -6.0823    1.3780    0.3820 C.ar    1  UNL1        0.0028
      2 C          -4.6748    1.4366    0.4639 C.ar    1  UNL1       -0.0356
      3 C          -4.1600    0.1971   -0.0196 C.ar    1  UNL1        0.0145
      4 C          -2.9985   -0.4742   -0.2451 C.ar    1  UNL1        0.0300
      5 S          -3.4671   -2.0367   -0.9007 S.2     1  UNL1       -0.0939
      6 C          -5.1614   -1.7127   -0.8386 C.ar    1  UNL1        0.0002
      7 C          -5.3221   -0.4735   -0.3406 C.ar    1  UNL1        0.0542
      8 N          -6.5122    0.1601   -0.1317 N.ar    1  UNL1       -0.3602
      9 C          -1.5808   -0.1206   -0.0427 C.ar    1  UNL1        0.0080
     10 C          -1.2040    1.1133    0.4754 C.ar    1  UNL1        0.0365
     11 N           0.0743    1.5205    0.6939 N.ar    1  UNL1       -0.2543
     12 C           1.0666    0.6730    0.3897 C.ar    1  UNL1        0.0717
     13 C           2.3817    1.0634    0.6029 C.ar    1  UNL1       -0.0264
     14 C           3.4723    0.2123    0.3012 C.ar    1  UNL1        0.0055
     15 C           3.2086   -1.0505   -0.2240 C.ar    1  UNL1        0.0217
     16 C           1.8829   -1.4699   -0.4495 C.ar    1  UNL1       -0.0382
     17 C           0.8194   -0.6013   -0.1395 C.ar    1  UNL1        0.0021
     18 C          -0.5189   -0.9812   -0.3494 C.ar    1  UNL1       -0.0428
     19 S           4.6358   -1.9661   -0.5381 S.2     1  UNL1       -0.0877
     20 C           5.6311   -0.6604    0.0347 C.ar    1  UNL1        0.0275
     21 C           7.0375   -0.4558    0.1760 C.ar    1  UNL1       -0.0403
     22 C           7.2999    0.7908    0.6945 C.ar    1  UNL1       -0.0227
     23 S           5.8977    1.7202    1.0153 S.2     1  UNL1       -0.0955
     24 C           4.8875    0.4117    0.4407 C.ar    1  UNL1        0.0342
     25 H          -6.8189    2.1231    0.6550 H       1  UNL1        0.0807
     26 H          -4.1264    2.2914    0.8346 H       1  UNL1        0.0639
     27 H          -5.9059   -2.4271   -1.1602 H       1  UNL1        0.0714
     28 H          -7.4456   -0.1889   -0.3122 H       1  UNL1        0.1653
     29 H          -1.9350    1.8644    0.7512 H       1  UNL1        0.0836
     30 H           2.5703    2.0530    1.0136 H       1  UNL1        0.0645
     31 H           1.6911   -2.4584   -0.8599 H       1  UNL1        0.0635
     32 H          -0.7117   -1.9693   -0.7598 H       1  UNL1        0.0631
     33 H           7.7982   -1.1795   -0.0874 H       1  UNL1        0.0634
     34 H           8.2708    1.2174    0.9083 H       1  UNL1        0.0694
@<TRIPOS>BOND
     1     1     2   ar
     2     2     3   ar
     3     3     4   ar
     4     4     5   ar
     5     5     6   ar
     6     6     7   ar
     7     7     8   ar
     8     4     9    1
     9     9    10   ar
    10    10    11   ar
    11    11    12   ar
    12    12    13   ar
    13    13    14   ar
    14    14    15   ar
    15    15    16   ar
    16    16    17   ar
    17    17    18   ar
    18    15    19   ar
    19    19    20   ar
    20    20    21   ar
    21    21    22   ar
    22    22    23   ar
    23    23    24   ar
    24     8     1   ar
    25    18     9   ar
    26    24    20   ar
    27     7     3   ar
    28    17    12   ar
    29    24    14   ar
    30     1    25    1
    31     2    26    1
    32     6    27    1
    33     8    28    1
    34    10    29    1
    35    13    30    1
    36    16    31    1
    37    18    32    1
    38    21    33    1
    39    22    34    1
