@<TRIPOS>MOLECULE
*****
 39 44 0 0 0
SMALL
GASTEIGER

@<TRIPOS>ATOM
      1 C           5.0836    2.7243   -0.3575 C.ar    1  UNL1        0.0028
      2 C           3.8062    2.1367   -0.2346 C.ar    1  UNL1       -0.0355
      3 C           3.9918    0.7279   -0.1590 C.ar    1  UNL1        0.0150
      4 C           3.3057   -0.4358   -0.0477 C.ar    1  UNL1        0.0387
      5 S           4.4930   -1.7182   -0.0502 S.2     1  UNL1       -0.0933
      6 C           5.8426   -0.6422   -0.2098 C.ar    1  UNL1        0.0002
      7 C           5.3619    0.6152   -0.2493 C.ar    1  UNL1        0.0542
      8 N           6.0905    1.7624   -0.3688 N.ar    1  UNL1       -0.3602
      9 C           1.9000   -0.6756    0.0798 C.ar    1  UNL1        0.0699
     10 S           0.7930    0.4328    0.8372 S.2     1  UNL1       -0.0833
     11 C          -0.5925   -0.5842    0.5794 C.ar    1  UNL1        0.0314
     12 C          -1.9198   -0.1675    1.0259 C.ar    1  UNL1       -0.0029
     13 C          -2.2034   -0.2415    2.4001 C.ar    1  UNL1       -0.0529
     14 C          -3.4567    0.1147    2.8859 C.ar    1  UNL1       -0.0606
     15 C          -4.4432    0.5461    2.0034 C.ar    1  UNL1       -0.0540
     16 C          -4.1928    0.6319    0.6253 C.ar    1  UNL1       -0.0173
     17 C          -5.2029    1.0717   -0.2467 C.ar    1  UNL1       -0.0540
     18 C          -4.9760    1.1708   -1.6184 C.ar    1  UNL1       -0.0612
     19 C          -3.7336    0.8338   -2.1373 C.ar    1  UNL1       -0.0611
     20 C          -2.7189    0.3944   -1.2841 C.ar    1  UNL1       -0.0534
     21 C          -2.9187    0.2764    0.1133 C.ar    1  UNL1       -0.0097
     22 C          -0.1657   -1.6962   -0.0594 C.ar    1  UNL1        0.0356
     23 C          -0.6693   -2.8984   -0.5822 C.ar    1  UNL1       -0.0150
     24 C           0.4445   -3.5491   -1.1244 C.ar    1  UNL1        0.0932
     25 O           1.6303   -2.8519   -0.9892 O.2     1  UNL1       -0.4617
     26 C           1.1814   -1.7449   -0.3301 C.ar    1  UNL1        0.1506
     27 H           5.3551    3.7689   -0.4412 H       1  UNL1        0.0807
     28 H           2.8719    2.6817   -0.2083 H       1  UNL1        0.0639
     29 H           6.8632   -0.9935   -0.2616 H       1  UNL1        0.0714
     30 H           7.0956    1.8587   -0.4452 H       1  UNL1        0.1653
     31 H          -1.4432   -0.5845    3.0993 H       1  UNL1        0.0624
     32 H          -3.6660    0.0543    3.9507 H       1  UNL1        0.0618
     33 H          -5.4179    0.8193    2.4032 H       1  UNL1        0.0624
     34 H          -6.1826    1.3449    0.1402 H       1  UNL1        0.0624
     35 H          -5.7683    1.5145   -2.2780 H       1  UNL1        0.0618
     36 H          -3.5472    0.9141   -3.2051 H       1  UNL1        0.0618
     37 H          -1.7567    0.1488   -1.7285 H       1  UNL1        0.0624
     38 H          -1.6868   -3.2625   -0.5837 H       1  UNL1        0.0655
     39 H           0.5521   -4.4982   -1.6333 H       1  UNL1        0.1030
@<TRIPOS>BOND
     1     1     2   ar
     2     2     3   ar
     3     3     4   ar
     4     4     5   ar
     5     5     6   ar
     6     6     7   ar
     7     7     8   ar
     8     4     9    1
     9     9    10   ar
    10    10    11   ar
    11    11    12    1
    12    12    13   ar
    13    13    14   ar
    14    14    15   ar
    15    15    16   ar
    16    16    17   ar
    17    17    18   ar
    18    18    19   ar
    19    19    20   ar
    20    20    21   ar
    21    11    22   ar
    22    22    23   ar
    23    23    24   ar
    24    24    25   ar
    25    25    26   ar
    26     8     1   ar
    27    26     9   ar
    28     7     3   ar
    29    21    12   ar
    30    26    22   ar
    31    21    16   ar
    32     1    27    1
    33     2    28    1
    34     6    29    1
    35     8    30    1
    36    13    31    1
    37    14    32    1
    38    15    33    1
    39    17    34    1
    40    18    35    1
    41    19    36    1
    42    20    37    1
    43    23    38    1
    44    24    39    1
