@<TRIPOS>MOLECULE
*****
 40 46 0 0 0
SMALL
GASTEIGER

@<TRIPOS>ATOM
      1 C          -5.8856   -2.4456    0.7745 C.ar    1  UNL1        0.0028
      2 C          -4.6064   -1.8501    0.7393 C.ar    1  UNL1       -0.0355
      3 C          -4.7618   -0.5416    0.2029 C.ar    1  UNL1        0.0150
      4 C          -4.0586    0.5723   -0.1160 C.ar    1  UNL1        0.0387
      5 S          -5.2094    1.7284   -0.7424 S.2     1  UNL1       -0.0933
      6 C          -6.5712    0.6747   -0.5394 C.ar    1  UNL1        0.0002
      7 C          -6.1194   -0.4845   -0.0238 C.ar    1  UNL1        0.0542
      8 N          -6.8654   -1.5829    0.2893 N.ar    1  UNL1       -0.3602
      9 C          -2.6556    0.8401   -0.0245 C.ar    1  UNL1        0.0699
     10 S          -1.4253   -0.3743   -0.2001 S.2     1  UNL1       -0.0832
     11 C          -0.1109    0.7402    0.0392 C.ar    1  UNL1        0.0344
     12 C           1.2687    0.3038   -0.0252 C.ar    1  UNL1        0.0357
     13 C           2.2073    0.8517   -0.8970 C.ar    1  UNL1        0.0388
     14 N           3.5279    0.5118   -1.0128 N.ar    1  UNL1       -0.2489
     15 C           4.1013   -0.4754   -0.2278 C.ar    1  UNL1        0.1360
     16 C           5.5170   -0.8084   -0.4056 C.ar    1  UNL1        0.1834
     17 N           5.9019   -2.0787   -0.2335 N.ar    1  UNL1       -0.2144
     18 C           7.1970   -2.3042   -0.4343 C.ar    1  UNL1        0.1201
     19 N           8.1028   -1.3997   -0.7936 N.ar    1  UNL1       -0.2241
     20 C           7.6076   -0.1757   -0.9503 C.ar    1  UNL1        0.1201
     21 N           6.3402    0.1841   -0.7734 N.ar    1  UNL1       -0.2144
     22 C           3.2583   -1.1030    0.7315 C.ar    1  UNL1        0.1294
     23 N           3.5839   -2.0460    1.6361 N.ar    1  UNL1       -0.1885
     24 S           2.2175   -2.3997    2.4961 S.2     1  UNL1        0.1166
     25 N           1.1408   -1.3599    1.7949 N.ar    1  UNL1       -0.1900
     26 C           1.8000   -0.6936    0.8290 C.ar    1  UNL1        0.1117
     27 C          -0.6551    1.9651    0.2215 C.ar    1  UNL1        0.0357
     28 C          -0.2643    3.2943    0.4597 C.ar    1  UNL1       -0.0150
     29 C          -1.4625    4.0116    0.5522 C.ar    1  UNL1        0.0932
     30 O          -2.5979    3.2415    0.3911 O.2     1  UNL1       -0.4617
     31 C          -2.0294    2.0177    0.1916 C.ar    1  UNL1        0.1506
     32 H          -6.1765   -3.4308    1.1160 H       1  UNL1        0.0807
     33 H          -3.6912   -2.3232    1.0704 H       1  UNL1        0.0639
     34 H          -7.5772    0.9675   -0.8036 H       1  UNL1        0.0714
     35 H          -7.8650   -1.7088    0.1876 H       1  UNL1        0.1653
     36 H           1.9070    1.6372   -1.5917 H       1  UNL1        0.0837
     37 H           7.5457   -3.3217   -0.2935 H       1  UNL1        0.1048
     38 H           8.3018    0.6022   -1.2495 H       1  UNL1        0.1048
     39 H           0.7297    3.7049    0.5648 H       1  UNL1        0.0655
     40 H          -1.6679    5.0593    0.7307 H       1  UNL1        0.1030
@<TRIPOS>BOND
     1     1     2   ar
     2     2     3   ar
     3     3     4   ar
     4     4     5   ar
     5     5     6   ar
     6     6     7   ar
     7     7     8   ar
     8     4     9    1
     9     9    10   ar
    10    10    11   ar
    11    11    12    1
    12    12    13   ar
    13    13    14   ar
    14    14    15   ar
    15    15    16    1
    16    16    17   ar
    17    17    18   ar
    18    18    19   ar
    19    19    20   ar
    20    20    21   ar
    21    15    22   ar
    22    22    23   ar
    23    23    24   ar
    24    24    25   ar
    25    25    26   ar
    26    11    27   ar
    27    27    28   ar
    28    28    29   ar
    29    29    30   ar
    30    30    31   ar
    31     8     1   ar
    32    31     9   ar
    33     7     3   ar
    34    26    12   ar
    35    31    27   ar
    36    21    16   ar
    37    26    22   ar
    38     1    32    1
    39     2    33    1
    40     6    34    1
    41     8    35    1
    42    13    36    1
    43    18    37    1
    44    20    38    1
    45    28    39    1
    46    29    40    1
