@<TRIPOS>MOLECULE
*****
 39 45 0 0 0
SMALL
GASTEIGER

@<TRIPOS>ATOM
      1 C          -7.2680   -0.8051    0.1789 C.ar    1  UNL1        0.0932
      2 C          -5.8887   -0.8767    0.4078 C.ar    1  UNL1       -0.0150
      3 C          -5.3096   -0.0170   -0.5459 C.ar    1  UNL1        0.0364
      4 C          -4.0949    0.4350   -0.9520 C.ar    1  UNL1        0.0484
      5 S          -4.4041    1.5360   -2.2833 S.2     1  UNL1       -0.0908
      6 C          -6.1215    1.3349   -2.2258 C.ar    1  UNL1        0.0192
      7 C          -6.3924    0.4704   -1.2342 C.ar    1  UNL1        0.1424
      8 O          -7.6265    0.0400   -0.8556 O.2     1  UNL1       -0.4624
      9 C          -2.7390    0.1413   -0.4636 C.ar    1  UNL1        0.0802
     10 C          -1.5858    0.7072   -1.0106 C.ar    1  UNL1       -0.0112
     11 C          -0.3720    0.3249   -0.4324 C.ar    1  UNL1        0.0525
     12 N           0.9156    0.7074   -0.7489 N.ar    1  UNL1       -0.3523
     13 C           1.7690    0.0651    0.0982 C.ar    1  UNL1        0.0738
     14 C           1.0433   -0.7195    0.9479 C.ar    1  UNL1        0.0746
     15 N           1.9029   -1.3765    1.8131 N.ar    1  UNL1       -0.3524
     16 C           3.2015   -1.0071    1.5131 C.ar    1  UNL1        0.0496
     17 C           4.4586   -1.3636    2.0653 C.ar    1  UNL1       -0.0371
     18 C           5.6576   -0.8110    1.5388 C.ar    1  UNL1       -0.0506
     19 C           5.4491    0.0709    0.4765 C.ar    1  UNL1        0.0002
     20 C           6.4261    0.7451   -0.2166 C.ar    1  UNL1        0.0094
     21 N           5.7978    1.5125   -1.1878 N.ar    1  UNL1       -0.3659
     22 C           4.4255    1.3423   -1.1306 C.ar    1  UNL1        0.0101
     23 C           4.2350    0.4616   -0.1115 C.ar    1  UNL1        0.0105
     24 C           3.0914   -0.1238    0.4595 C.ar    1  UNL1        0.0327
     25 C          -0.3351   -0.5778    0.6364 C.ar    1  UNL1        0.0417
     26 C          -1.5301   -1.0998    1.1272 C.ar    1  UNL1        0.0394
     27 N          -2.7136   -0.7360    0.5741 N.ar    1  UNL1       -0.2536
     28 H          -8.1076   -1.2882    0.6611 H       1  UNL1        0.1030
     29 H          -5.3924   -1.4714    1.1615 H       1  UNL1        0.0655
     30 H          -6.8109    1.8359   -2.8891 H       1  UNL1        0.0731
     31 H          -1.6096    1.4054   -1.8367 H       1  UNL1        0.0660
     32 H           1.2168    1.3470   -1.4720 H       1  UNL1        0.1660
     33 H           1.5981   -2.0154    2.5349 H       1  UNL1        0.1660
     34 H           4.5128   -2.0628    2.8959 H       1  UNL1        0.0638
     35 H           6.6314   -1.0630    1.9380 H       1  UNL1        0.0625
     36 H           7.5033    0.7614   -0.1231 H       1  UNL1        0.0813
     37 H           6.2791    2.1123   -1.8450 H       1  UNL1        0.1648
     38 H           3.7658    1.8600   -1.8105 H       1  UNL1        0.0813
     39 H          -1.5790   -1.8021    1.9507 H       1  UNL1        0.0837
@<TRIPOS>BOND
     1     1     2   ar
     2     2     3   ar
     3     3     4   ar
     4     4     5   ar
     5     5     6   ar
     6     6     7   ar
     7     7     8   ar
     8     4     9    1
     9     9    10   ar
    10    10    11   ar
    11    11    12   ar
    12    12    13   ar
    13    13    14   ar
    14    14    15   ar
    15    15    16   ar
    16    16    17   ar
    17    17    18   ar
    18    18    19   ar
    19    19    20   ar
    20    20    21   ar
    21    21    22   ar
    22    22    23   ar
    23    23    24   ar
    24    14    25   ar
    25    25    26   ar
    26    26    27   ar
    27     8     1   ar
    28    27     9   ar
    29     7     3   ar
    30    25    11   ar
    31    24    13   ar
    32    24    16   ar
    33    23    19   ar
    34     1    28    1
    35     2    29    1
    36     6    30    1
    37    10    31    1
    38    12    32    1
    39    15    33    1
    40    17    34    1
    41    18    35    1
    42    20    36    1
    43    21    37    1
    44    22    38    1
    45    26    39    1
