@<TRIPOS>MOLECULE
*****
 43 50 0 0 0
SMALL
GASTEIGER

@<TRIPOS>ATOM
      1 SI         -2.2756   -3.7404   -2.2693 Si      1  UNL1        0.0000
      2 C          -3.3789   -2.4367   -1.5367 C.2     1  UNL1        0.0000
      3 C          -2.6790   -1.4136   -1.0053 C.ar    1  UNL1        0.0000
      4 C          -3.1988   -0.2420   -0.3600 C.ar    1  UNL1        0.0000
      5 C          -4.5726    0.0998   -0.1312 C.ar    1  UNL1        0.0000
      6 S          -6.1453   -0.6031   -0.4606 S.2     1  UNL1        0.0000
      7 C          -6.9245    0.7253    0.2810 C.ar    1  UNL1        0.0000
      8 C          -6.0583    1.6737    0.7672 C.ar    1  UNL1        0.0000
      9 C          -4.7032    1.2964    0.5211 C.ar    1  UNL1        0.0000
     10 S          -3.1660    2.0239    0.8693 S.2     1  UNL1        0.0000
     11 C          -2.3309    0.7276    0.1322 C.ar    1  UNL1        0.0000
     12 C          -0.8601    0.6320    0.0323 C.ar    1  UNL1        0.0000
     13 C           0.1206    1.5448    0.4789 C.ar    1  UNL1        0.0000
     14 C          -0.0201    2.7635    1.1036 C.ar    1  UNL1        0.0000
     15 N           1.2354    3.2885    1.3253 N.ar    1  UNL1        0.0000
     16 C           2.1946    2.4290    0.8541 C.ar    1  UNL1        0.0000
     17 C           1.5408    1.3377    0.3331 C.ar    1  UNL1        0.0000
     18 C           2.1346    0.2244   -0.2641 C.ar    1  UNL1        0.0000
     19 C           1.1680   -0.6961   -0.7260 C.ar    1  UNL1        0.0000
     20 C          -0.2606   -0.5222   -0.5969 C.ar    1  UNL1        0.0000
     21 C          -1.1983   -1.5636   -1.1270 C.ar    1  UNL1        0.0000
     22 C          -0.8169   -2.7013   -1.7506 C.2     1  UNL1        0.0000
     23 C           3.5651    0.0327   -0.3784 C.ar    1  UNL1        0.0000
     24 S           4.3130   -0.0707   -1.9317 S.2     1  UNL1        0.0000
     25 C           5.8936   -0.2736   -1.2724 C.ar    1  UNL1        0.0000
     26 C           5.8430   -0.2712    0.0919 C.ar    1  UNL1        0.0000
     27 S           7.1420   -0.4493    1.3257 S.2     1  UNL1        0.0000
     28 C           5.8385   -0.2951    2.4979 C.ar    1  UNL1        0.0000
     29 C           4.5516   -0.1230    1.9747 C.ar    1  UNL1        0.0000
     30 C           4.5395   -0.1007    0.5550 C.ar    1  UNL1        0.0000
     31 H          -2.3411   -5.0259   -1.5339 H       1  UNL1        0.0000
     32 H          -2.4032   -3.8381   -3.7429 H       1  UNL1        0.0000
     33 H          -4.4457   -2.5665   -1.5775 H       1  UNL1        0.0000
     34 H          -8.0051    0.7442    0.3247 H       1  UNL1        0.0000
     35 H          -6.3659    2.5823    1.2685 H       1  UNL1        0.0000
     36 H          -0.8740    3.3422    1.4185 H       1  UNL1        0.0000
     37 H           1.4188    4.1828    1.7620 H       1  UNL1        0.0000
     38 H           3.2436    2.6827    0.9298 H       1  UNL1        0.0000
     39 H           1.5492   -1.5971   -1.2028 H       1  UNL1        0.0000
     40 H           0.1769   -3.0519   -1.9704 H       1  UNL1        0.0000
     41 H           6.7706   -0.3864   -1.8944 H       1  UNL1        0.0000
     42 H           6.1099   -0.3445    3.5437 H       1  UNL1        0.0000
     43 H           3.6749   -0.0204    2.6033 H       1  UNL1        0.0000
@<TRIPOS>BOND
     1     1     2    1
     2     2     3    2
     3     3     4   ar
     4     4     5   ar
     5     5     6   ar
     6     6     7   ar
     7     7     8   ar
     8     8     9   ar
     9     9    10   ar
    10    10    11   ar
    11    11    12   ar
    12    12    13   ar
    13    13    14   ar
    14    14    15   ar
    15    15    16   ar
    16    16    17   ar
    17    17    18   ar
    18    18    19   ar
    19    19    20   ar
    20    20    21   ar
    21    21    22    2
    22    18    23    1
    23    23    24   ar
    24    24    25   ar
    25    25    26   ar
    26    26    27   ar
    27    27    28   ar
    28    28    29   ar
    29    29    30   ar
    30    22     1    1
    31    30    23   ar
    32    21     3   ar
    33    30    26   ar
    34    11     4   ar
    35    20    12   ar
    36     9     5   ar
    37    17    13   ar
    38     1    31    1
    39     1    32    1
    40     2    33    1
    41     7    34    1
    42     8    35    1
    43    14    36    1
    44    15    37    1
    45    16    38    1
    46    19    39    1
    47    22    40    1
    48    25    41    1
    49    28    42    1
    50    29    43    1
