@<TRIPOS>MOLECULE
*****
 39 45 0 0 0
SMALL
GASTEIGER

@<TRIPOS>ATOM
      1 C          -5.3326    0.4745   -1.9160 C.ar    1  UNL1        0.0932
      2 C          -3.9529    0.4568   -1.6714 C.ar    1  UNL1       -0.0150
      3 C          -3.8262    0.0180   -0.3424 C.ar    1  UNL1        0.0349
      4 C          -2.8827   -0.2528    0.5883 C.ar    1  UNL1        0.0308
      5 S          -3.7069   -0.7740    2.0347 S.2     1  UNL1       -0.0923
      6 C          -5.2850   -0.6109    1.3282 C.ar    1  UNL1        0.0192
      7 C          -5.1218   -0.1787    0.0648 C.ar    1  UNL1        0.1424
      8 O          -6.1060    0.0786   -0.8383 O.2     1  UNL1       -0.4624
      9 C          -1.4221   -0.1708    0.5456 C.ar    1  UNL1       -0.0009
     10 C          -0.8270    0.9089    1.2071 C.ar    1  UNL1       -0.0289
     11 C           0.5591    1.0603    1.1434 C.ar    1  UNL1        0.0487
     12 N           1.3205    2.0406    1.7398 N.ar    1  UNL1       -0.3540
     13 C           2.6412    1.9236    1.3927 C.ar    1  UNL1        0.0497
     14 C           3.7320    2.7329    1.7583 C.ar    1  UNL1       -0.0356
     15 C           5.0018    2.4598    1.2407 C.ar    1  UNL1       -0.0315
     16 C           5.0984    1.3812    0.3396 C.ar    1  UNL1        0.1006
     17 N           6.2294    1.0037   -0.2883 N.ar    1  UNL1       -0.1908
     18 S           5.8209   -0.2742   -1.2820 S.2     1  UNL1        0.1165
     19 N           4.1924   -0.4106   -0.9459 N.ar    1  UNL1       -0.1901
     20 C           3.9734    0.5293   -0.0429 C.ar    1  UNL1        0.1096
     21 C           2.6905    0.8168    0.5579 C.ar    1  UNL1        0.0361
     22 C           1.4069    0.1935    0.4363 C.ar    1  UNL1        0.0173
     23 C           0.7940   -0.9704   -0.1652 C.ar    1  UNL1       -0.0075
     24 C           1.5519   -1.9989   -0.7711 C.ar    1  UNL1       -0.0534
     25 C           0.9584   -3.1080   -1.3770 C.ar    1  UNL1       -0.0611
     26 C          -0.4181   -3.2353   -1.3806 C.ar    1  UNL1       -0.0611
     27 C          -1.1970   -2.2634   -0.7567 C.ar    1  UNL1       -0.0534
     28 C          -0.6281   -1.1268   -0.1284 C.ar    1  UNL1       -0.0089
     29 H          -5.9087    0.7399   -2.7930 H       1  UNL1        0.1030
     30 H          -3.1753    0.7243   -2.3726 H       1  UNL1        0.0655
     31 H          -6.2025   -0.8308    1.8537 H       1  UNL1        0.0731
     32 H          -1.4367    1.6283    1.7484 H       1  UNL1        0.0645
     33 H           0.9448    2.7716    2.3270 H       1  UNL1        0.1659
     34 H           3.5967    3.5762    2.4321 H       1  UNL1        0.0639
     35 H           5.8665    3.0624    1.4927 H       1  UNL1        0.0640
     36 H           2.6314   -1.9859   -0.7533 H       1  UNL1        0.0624
     37 H           1.5815   -3.8722   -1.8338 H       1  UNL1        0.0618
     38 H          -0.8887   -4.0967   -1.8462 H       1  UNL1        0.0618
     39 H          -2.2737   -2.4209   -0.7539 H       1  UNL1        0.0624
@<TRIPOS>BOND
     1     1     2   ar
     2     2     3   ar
     3     3     4   ar
     4     4     5   ar
     5     5     6   ar
     6     6     7   ar
     7     7     8   ar
     8     4     9    1
     9     9    10   ar
    10    10    11   ar
    11    11    12   ar
    12    12    13   ar
    13    13    14   ar
    14    14    15   ar
    15    15    16   ar
    16    16    17   ar
    17    17    18   ar
    18    18    19   ar
    19    19    20   ar
    20    20    21   ar
    21    21    22   ar
    22    22    23   ar
    23    23    24   ar
    24    24    25   ar
    25    25    26   ar
    26    26    27   ar
    27    27    28   ar
    28     8     1   ar
    29    28     9   ar
    30     7     3   ar
    31    22    11   ar
    32    28    23   ar
    33    21    13   ar
    34    20    16   ar
    35     1    29    1
    36     2    30    1
    37     6    31    1
    38    10    32    1
    39    12    33    1
    40    14    34    1
    41    15    35    1
    42    24    36    1
    43    25    37    1
    44    26    38    1
    45    27    39    1
