@<TRIPOS>MOLECULE
*****
 43 50 0 0 0
SMALL
GASTEIGER

@<TRIPOS>ATOM
      1 C          -6.2848    0.9706    2.0142 C.ar    1  UNL1        0.0932
      2 C          -4.9165    0.7062    1.8688 C.ar    1  UNL1       -0.0150
      3 C          -4.7604    0.3257    0.5241 C.ar    1  UNL1        0.0349
      4 C          -3.8065   -0.0617   -0.3541 C.ar    1  UNL1        0.0308
      5 S          -4.5897   -0.3195   -1.8919 S.2     1  UNL1       -0.0923
      6 C          -6.1642    0.0925   -1.2895 C.ar    1  UNL1        0.0192
      7 C          -6.0312    0.4053    0.0117 C.ar    1  UNL1        0.1424
      8 O          -7.0238    0.7904    0.8582 O.2     1  UNL1       -0.4624
      9 C          -2.3788   -0.2624   -0.2116 C.ar    1  UNL1       -0.0018
     10 C          -1.4223    0.5179   -0.8822 C.ar    1  UNL1       -0.0445
     11 C           0.0029    0.3460   -0.7222 C.ar    1  UNL1       -0.0065
     12 C           0.9581    1.1311   -1.3933 C.ar    1  UNL1        0.0078
     13 C           0.6815    2.1503   -2.2826 C.ar    1  UNL1        0.0100
     14 N           1.8785    2.6732   -2.7246 N.ar    1  UNL1       -0.3659
     15 C           2.9296    2.0059   -2.1323 C.ar    1  UNL1        0.0100
     16 C           2.3603    1.0657   -1.3214 C.ar    1  UNL1        0.0088
     17 C           2.9589    0.0786   -0.4573 C.ar    1  UNL1        0.0081
     18 C           4.3612   -0.1274   -0.2621 C.ar    1  UNL1        0.0157
     19 C           5.5258    0.4738   -0.7704 C.ar    1  UNL1        0.0364
     20 N           6.7639    0.0642   -0.3999 N.ar    1  UNL1       -0.2626
     21 C           6.8830   -0.9445    0.4769 C.ar    1  UNL1        0.0286
     22 C           5.8127   -1.6062    1.0389 C.ar    1  UNL1       -0.0292
     23 C           4.5393   -1.1710    0.6463 C.ar    1  UNL1        0.0234
     24 S           3.0491   -1.8150    1.1887 S.2     1  UNL1       -0.0875
     25 C           2.0724   -0.7438    0.2461 C.ar    1  UNL1        0.0295
     26 C           0.6367   -0.6368    0.1365 C.ar    1  UNL1        0.0053
     27 C          -0.3535   -1.4179    0.7990 C.ar    1  UNL1       -0.0015
     28 C          -0.1225   -2.4485    1.6839 C.ar    1  UNL1       -0.0160
     29 S          -1.5596   -3.1778    2.2746 S.2     1  UNL1       -0.1038
     30 C          -2.5431   -2.1307    1.3528 C.ar    1  UNL1       -0.0160
     31 C          -1.7980   -1.2295    0.6244 C.ar    1  UNL1       -0.0020
     32 H          -6.8738    1.2914    2.8637 H       1  UNL1        0.1030
     33 H          -4.1654    0.7862    2.6418 H       1  UNL1        0.0655
     34 H          -7.0589    0.0853   -1.8943 H       1  UNL1        0.0731
     35 H          -1.7852    1.2986   -1.5492 H       1  UNL1        0.0630
     36 H          -0.2459    2.5641   -2.6541 H       1  UNL1        0.0813
     37 H           1.9710    3.4338   -3.3864 H       1  UNL1        0.1648
     38 H           3.9394    2.2953   -2.3734 H       1  UNL1        0.0813
     39 H           5.5239    1.2896   -1.4789 H       1  UNL1        0.0836
     40 H           7.9031   -1.2212    0.7289 H       1  UNL1        0.0830
     41 H           5.9517   -2.4166    1.7439 H       1  UNL1        0.0644
     42 H           0.7980   -2.8649    2.0531 H       1  UNL1        0.0700
     43 H          -3.6171   -2.2463    1.4030 H       1  UNL1        0.0700
@<TRIPOS>BOND
     1     1     2   ar
     2     2     3   ar
     3     3     4   ar
     4     4     5   ar
     5     5     6   ar
     6     6     7   ar
     7     7     8   ar
     8     4     9    1
     9     9    10   ar
    10    10    11   ar
    11    11    12   ar
    12    12    13   ar
    13    13    14   ar
    14    14    15   ar
    15    15    16   ar
    16    16    17   ar
    17    17    18   ar
    18    18    19   ar
    19    19    20   ar
    20    20    21   ar
    21    21    22   ar
    22    22    23   ar
    23    23    24   ar
    24    24    25   ar
    25    25    26   ar
    26    26    27   ar
    27    27    28   ar
    28    28    29   ar
    29    29    30   ar
    30    30    31   ar
    31     8     1   ar
    32    31     9   ar
    33     7     3   ar
    34    26    11   ar
    35    31    27   ar
    36    16    12   ar
    37    25    17   ar
    38    23    18   ar
    39     1    32    1
    40     2    33    1
    41     6    34    1
    42    10    35    1
    43    13    36    1
    44    14    37    1
    45    15    38    1
    46    19    39    1
    47    21    40    1
    48    22    41    1
    49    28    42    1
    50    30    43    1
