@<TRIPOS>MOLECULE
*****
 41 47 0 0 0
SMALL
GASTEIGER

@<TRIPOS>ATOM
      1 C           6.8591   -1.4916   -0.1856 C.ar    1  UNL1        0.0932
      2 C           5.4635   -1.5903   -0.1193 C.ar    1  UNL1       -0.0150
      3 C           4.9930   -0.2637   -0.1950 C.ar    1  UNL1        0.0363
      4 C           3.8443    0.4564   -0.1982 C.ar    1  UNL1        0.0463
      5 S           4.2982    2.1421   -0.3390 S.2     1  UNL1       -0.0908
      6 C           5.9952    1.8078   -0.3870 C.ar    1  UNL1        0.0192
      7 C           6.1475    0.4754   -0.2973 C.ar    1  UNL1        0.1424
      8 O           7.3299   -0.1974   -0.2990 O.2     1  UNL1       -0.4624
      9 C           2.4741    0.0371   -0.1098 C.ar    1  UNL1        0.0549
     10 C           1.9354   -1.2339    0.0048 C.ar    1  UNL1       -0.0274
     11 C           0.5582   -1.0397    0.0492 C.ar    1  UNL1        0.0116
     12 C          -0.4925   -1.9672    0.1607 C.ar    1  UNL1        0.0296
     13 C          -0.4326   -3.3193    0.2557 C.ar    1  UNL1        0.1000
     14 O          -1.7195   -3.7699    0.3429 O.2     1  UNL1       -0.4698
     15 C          -2.5442   -2.6700    0.2985 C.ar    1  UNL1        0.1000
     16 C          -1.8224   -1.4988    0.1834 C.ar    1  UNL1        0.0288
     17 C          -2.2934   -0.1421    0.1055 C.ar    1  UNL1        0.0025
     18 C          -1.1616    0.7481   -0.0068 C.ar    1  UNL1        0.0073
     19 C          -1.3639    2.1312   -0.0980 C.ar    1  UNL1       -0.0514
     20 C          -2.6521    2.6580   -0.0814 C.ar    1  UNL1       -0.0534
     21 C          -3.7787    1.8360    0.0258 C.ar    1  UNL1       -0.0173
     22 C          -5.0484    2.4389    0.0361 C.ar    1  UNL1       -0.0540
     23 C          -6.2072    1.6781    0.1402 C.ar    1  UNL1       -0.0612
     24 C          -6.1058    0.3014    0.2352 C.ar    1  UNL1       -0.0611
     25 C          -4.8462   -0.3089    0.2258 C.ar    1  UNL1       -0.0534
     26 C          -3.6377    0.4245    0.1216 C.ar    1  UNL1       -0.0094
     27 C           0.1983    0.2881   -0.0313 C.ar    1  UNL1        0.0554
     28 N           1.4167    0.9343   -0.1297 N.ar    1  UNL1       -0.3532
     29 H           7.6397   -2.2412   -0.1647 H       1  UNL1        0.1030
     30 H           4.9008   -2.5073   -0.0293 H       1  UNL1        0.0655
     31 H           6.7578    2.5677   -0.4741 H       1  UNL1        0.0731
     32 H           2.4791   -2.1663    0.0490 H       1  UNL1        0.0645
     33 H           0.3422   -4.0710    0.2771 H       1  UNL1        0.1036
     34 H          -3.5867   -2.9330    0.3617 H       1  UNL1        0.1036
     35 H          -0.5351    2.8275   -0.1834 H       1  UNL1        0.0624
     36 H          -2.7668    3.7384   -0.1545 H       1  UNL1        0.0624
     37 H          -5.1458    3.5205   -0.0378 H       1  UNL1        0.0624
     38 H          -7.1808    2.1598    0.1468 H       1  UNL1        0.0618
     39 H          -7.0025   -0.3076    0.3172 H       1  UNL1        0.0618
     40 H          -4.8441   -1.3860    0.3035 H       1  UNL1        0.0624
     41 H           1.5352    1.9338   -0.2068 H       1  UNL1        0.1659
@<TRIPOS>BOND
     1     1     2   ar
     2     2     3   ar
     3     3     4   ar
     4     4     5   ar
     5     5     6   ar
     6     6     7   ar
     7     7     8   ar
     8     4     9    1
     9     9    10   ar
    10    10    11   ar
    11    11    12   ar
    12    12    13   ar
    13    13    14   ar
    14    14    15   ar
    15    15    16   ar
    16    16    17   ar
    17    17    18   ar
    18    18    19   ar
    19    19    20   ar
    20    20    21   ar
    21    21    22   ar
    22    22    23   ar
    23    23    24   ar
    24    24    25   ar
    25    25    26   ar
    26    18    27   ar
    27    27    28   ar
    28     8     1   ar
    29    28     9   ar
    30     7     3   ar
    31    27    11   ar
    32    16    12   ar
    33    26    17   ar
    34    26    21   ar
    35     1    29    1
    36     2    30    1
    37     6    31    1
    38    10    32    1
    39    13    33    1
    40    15    34    1
    41    19    35    1
    42    20    36    1
    43    22    37    1
    44    23    38    1
    45    24    39    1
    46    25    40    1
    47    28    41    1
