@<TRIPOS>MOLECULE
*****
 41 48 0 0 0
SMALL
GASTEIGER

@<TRIPOS>ATOM
      1 C           6.4738   -0.5561    0.6020 C.ar    1  UNL1        0.0932
      2 C           5.1454   -0.2044    0.3298 C.ar    1  UNL1       -0.0150
      3 C           4.3887   -1.3449    0.6579 C.ar    1  UNL1        0.0350
      4 C           3.1080   -1.7869    0.6840 C.ar    1  UNL1        0.0323
      5 S           3.1488   -3.4297    1.2873 S.2     1  UNL1       -0.0922
      6 C           4.8707   -3.4453    1.4787 C.ar    1  UNL1        0.0192
      7 C           5.3321   -2.2439    1.0903 C.ar    1  UNL1        0.1424
      8 O           6.6314   -1.8409    1.0893 O.2     1  UNL1       -0.4624
      9 C           1.8457   -1.1604    0.3184 C.ar    1  UNL1        0.0182
     10 C           0.7020   -1.2005    1.1223 C.ar    1  UNL1       -0.0429
     11 C          -0.5301   -0.5695    0.7562 C.ar    1  UNL1       -0.0038
     12 C          -1.7012   -0.7001    1.5289 C.ar    1  UNL1        0.0282
     13 C          -1.8565   -1.4203    2.6900 C.ar    1  UNL1        0.1000
     14 O          -3.1453   -1.3372    3.1252 O.2     1  UNL1       -0.4698
     15 C          -3.8227   -0.5606    2.2334 C.ar    1  UNL1        0.1000
     16 C          -2.9789   -0.1438    1.2313 C.ar    1  UNL1        0.0282
     17 C          -3.2988    0.6875    0.1403 C.ar    1  UNL1       -0.0059
     18 C          -4.6409    1.1952   -0.0759 C.ar    1  UNL1       -0.0527
     19 C          -4.9770    2.0759   -1.1076 C.ar    1  UNL1       -0.0529
     20 C          -3.8524    2.4511   -1.8280 C.ar    1  UNL1       -0.0103
     21 C          -3.9545    3.4008   -2.8163 C.ar    1  UNL1       -0.0166
     22 S          -2.4181    3.8017   -3.4486 S.2     1  UNL1       -0.1039
     23 C          -1.6292    2.7043   -2.3869 C.ar    1  UNL1       -0.0160
     24 C          -2.5000    1.9507   -1.6318 C.ar    1  UNL1       -0.0025
     25 C          -2.1077    0.9452   -0.6708 C.ar    1  UNL1        0.0009
     26 C          -0.7801    0.2396   -0.4235 C.ar    1  UNL1        0.0193
     27 C           0.3731    0.1823   -1.3094 C.ar    1  UNL1        0.1088
     28 N           0.4251    0.6413   -2.5717 N.ar    1  UNL1       -0.1901
     29 S           1.9289    0.3528   -3.1770 S.2     1  UNL1        0.1165
     30 N           2.6232   -0.4051   -1.8902 N.ar    1  UNL1       -0.1901
     31 C           1.6888   -0.4990   -0.9260 C.ar    1  UNL1        0.1087
     32 H           7.4023   -0.0095    0.5014 H       1  UNL1        0.1030
     33 H           4.8051    0.7446   -0.0585 H       1  UNL1        0.0655
     34 H           5.4278   -4.2937    1.8477 H       1  UNL1        0.0731
     35 H           0.7610   -1.7387    2.0678 H       1  UNL1        0.0631
     36 H          -1.2080   -2.0232    3.3102 H       1  UNL1        0.1036
     37 H          -4.8673   -0.4095    2.4658 H       1  UNL1        0.1036
     38 H          -5.4441    0.8884    0.5928 H       1  UNL1        0.0624
     39 H          -5.9796    2.4536   -1.2573 H       1  UNL1        0.0624
     40 H          -4.8363    3.9112   -3.1788 H       1  UNL1        0.0699
     41 H          -0.5531    2.7194   -2.3927 H       1  UNL1        0.0700
@<TRIPOS>BOND
     1     1     2   ar
     2     2     3   ar
     3     3     4   ar
     4     4     5   ar
     5     5     6   ar
     6     6     7   ar
     7     7     8   ar
     8     4     9    1
     9     9    10   ar
    10    10    11   ar
    11    11    12   ar
    12    12    13   ar
    13    13    14   ar
    14    14    15   ar
    15    15    16   ar
    16    16    17   ar
    17    17    18   ar
    18    18    19   ar
    19    19    20   ar
    20    20    21   ar
    21    21    22   ar
    22    22    23   ar
    23    23    24   ar
    24    24    25   ar
    25    25    26   ar
    26    26    27   ar
    27    27    28   ar
    28    28    29   ar
    29    29    30   ar
    30    30    31   ar
    31     8     1   ar
    32    31     9   ar
    33     7     3   ar
    34    26    11   ar
    35    31    27   ar
    36    16    12   ar
    37    25    17   ar
    38    24    20   ar
    39     1    32    1
    40     2    33    1
    41     6    34    1
    42    10    35    1
    43    13    36    1
    44    15    37    1
    45    18    38    1
    46    19    39    1
    47    21    40    1
    48    23    41    1
