@<TRIPOS>MOLECULE
*****
 43 50 0 0 0
SMALL
GASTEIGER

@<TRIPOS>ATOM
      1 C          -6.3915    0.1543    1.6925 C.ar    1  UNL1        0.0932
      2 C          -4.9958    0.1526    1.5686 C.ar    1  UNL1       -0.0150
      3 C          -4.7517    0.3775    0.2022 C.ar    1  UNL1        0.0349
      4 C          -3.7297    0.5061   -0.6754 C.ar    1  UNL1        0.0308
      5 S          -4.4281    0.7634   -2.2534 S.2     1  UNL1       -0.0923
      6 C          -6.0606    0.6984   -1.6682 C.ar    1  UNL1        0.0192
      7 C          -6.0075    0.4842   -0.3416 C.ar    1  UNL1        0.1424
      8 O          -7.0669    0.3625    0.5028 O.2     1  UNL1       -0.4624
      9 C          -2.2918    0.4577   -0.5061 C.ar    1  UNL1       -0.0018
     10 C          -1.4843   -0.5502   -1.0671 C.ar    1  UNL1       -0.0445
     11 C          -0.0500   -0.6343   -0.8888 C.ar    1  UNL1       -0.0065
     12 C           0.7600   -1.6579   -1.4533 C.ar    1  UNL1       -0.0024
     13 C           0.2591   -2.6828   -2.2340 C.ar    1  UNL1       -0.0160
     14 S           1.4781   -3.7739   -2.7748 S.2     1  UNL1       -0.1038
     15 C           2.7144   -2.8911   -1.9717 C.ar    1  UNL1       -0.0159
     16 C           2.1665   -1.8173   -1.3308 C.ar    1  UNL1       -0.0005
     17 C           2.8767   -0.8422   -0.5558 C.ar    1  UNL1        0.0177
     18 C           4.2546   -0.7431   -0.2684 C.ar    1  UNL1        0.0261
     19 C           5.4303   -1.4500   -0.5526 C.ar    1  UNL1        0.0373
     20 N           6.6306   -1.0266   -0.0796 N.ar    1  UNL1       -0.2625
     21 C           6.6814    0.0915    0.6721 C.ar    1  UNL1        0.0295
     22 C           5.5838    0.8634    1.0112 C.ar    1  UNL1       -0.0196
     23 C           4.3633    0.4071    0.5150 C.ar    1  UNL1        0.0504
     24 N           3.0992    0.9381    0.6649 N.ar    1  UNL1       -0.3535
     25 C           2.1368    0.1868    0.0216 C.ar    1  UNL1        0.0566
     26 C           0.7227    0.3175   -0.1093 C.ar    1  UNL1        0.0149
     27 C          -0.1098    1.3230    0.4513 C.ar    1  UNL1       -0.0006
     28 C           0.3002    2.3626    1.2557 C.ar    1  UNL1       -0.0159
     29 S          -0.9851    3.3979    1.7314 S.2     1  UNL1       -0.1038
     30 C          -2.1337    2.4690    0.8741 C.ar    1  UNL1       -0.0160
     31 C          -1.5581    1.3824    0.2532 C.ar    1  UNL1       -0.0020
     32 H          -7.0427    0.0215    2.5469 H       1  UNL1        0.1030
     33 H          -4.2846    0.0060    2.3690 H       1  UNL1        0.0655
     34 H          -6.9295    0.8131   -2.2995 H       1  UNL1        0.0731
     35 H          -1.9885   -1.3101   -1.6623 H       1  UNL1        0.0630
     36 H          -0.7575   -2.8830   -2.5388 H       1  UNL1        0.0700
     37 H           3.7323   -3.2365   -2.0412 H       1  UNL1        0.0700
     38 H           5.4686   -2.3524   -1.1472 H       1  UNL1        0.0836
     39 H           7.6762    0.3670    1.0129 H       1  UNL1        0.0830
     40 H           5.6773    1.7545    1.6179 H       1  UNL1        0.0653
     41 H           2.9321    1.7832    1.1821 H       1  UNL1        0.1659
     42 H           1.2719    2.6278    1.6271 H       1  UNL1        0.0700
     43 H          -3.1688    2.7823    0.8813 H       1  UNL1        0.0700
@<TRIPOS>BOND
     1     1     2   ar
     2     2     3   ar
     3     3     4   ar
     4     4     5   ar
     5     5     6   ar
     6     6     7   ar
     7     7     8   ar
     8     4     9    1
     9     9    10   ar
    10    10    11   ar
    11    11    12   ar
    12    12    13   ar
    13    13    14   ar
    14    14    15   ar
    15    15    16   ar
    16    16    17   ar
    17    17    18   ar
    18    18    19   ar
    19    19    20   ar
    20    20    21   ar
    21    21    22   ar
    22    22    23   ar
    23    23    24   ar
    24    24    25   ar
    25    25    26   ar
    26    26    27   ar
    27    27    28   ar
    28    28    29   ar
    29    29    30   ar
    30    30    31   ar
    31     8     1   ar
    32    31     9   ar
    33     7     3   ar
    34    26    11   ar
    35    31    27   ar
    36    16    12   ar
    37    25    17   ar
    38    23    18   ar
    39     1    32    1
    40     2    33    1
    41     6    34    1
    42    10    35    1
    43    13    36    1
    44    15    37    1
    45    19    38    1
    46    21    39    1
    47    22    40    1
    48    24    41    1
    49    28    42    1
    50    30    43    1
