@<TRIPOS>MOLECULE
*****
 45 52 0 0 0
SMALL
GASTEIGER

@<TRIPOS>ATOM
      1 C          -6.3824    1.5372    1.6496 C.ar    1  UNL1        0.0932
      2 C          -5.0134    1.2799    1.4959 C.ar    1  UNL1       -0.0150
      3 C          -4.9340    0.3595    0.4366 C.ar    1  UNL1        0.0349
      4 C          -4.0260   -0.3437   -0.2770 C.ar    1  UNL1        0.0308
      5 S          -4.8994   -1.2696   -1.4682 S.2     1  UNL1       -0.0923
      6 C          -6.4506   -0.6902   -0.9461 C.ar    1  UNL1        0.0192
      7 C          -6.2425    0.1643    0.0717 C.ar    1  UNL1        0.1424
      8 O          -7.1930    0.8482    0.7641 O.2     1  UNL1       -0.4624
      9 C          -2.5849   -0.3886   -0.2128 C.ar    1  UNL1       -0.0009
     10 C          -1.7442    0.6538   -0.6395 C.ar    1  UNL1       -0.0445
     11 C          -0.2867    0.6116   -0.5565 C.ar    1  UNL1       -0.0064
     12 C           0.5682    1.6542   -0.9914 C.ar    1  UNL1       -0.0024
     13 C           0.1038    2.8281   -1.5458 C.ar    1  UNL1       -0.0160
     14 S           1.3728    3.8932   -1.9711 S.2     1  UNL1       -0.1038
     15 C           2.5582    2.7889   -1.4174 C.ar    1  UNL1       -0.0159
     16 C           2.0146    1.6257   -0.9141 C.ar    1  UNL1        0.0010
     17 C           2.7856    0.5372   -0.3866 C.ar    1  UNL1        0.0351
     18 C           4.2112    0.4588   -0.2881 C.ar    1  UNL1        0.0822
     19 N           5.0478    1.4469   -0.6987 N.ar    1  UNL1       -0.2542
     20 C           6.3868    1.3011   -0.5745 C.ar    1  UNL1        0.0283
     21 C           6.9865    0.1829   -0.0421 C.ar    1  UNL1       -0.0430
     22 C           6.1567   -0.8398    0.3850 C.ar    1  UNL1       -0.0497
     23 C           4.7632   -0.7036    0.2626 C.ar    1  UNL1        0.0191
     24 C           3.9004   -1.6995    0.6764 C.ar    1  UNL1        0.0375
     25 N           2.5585   -1.6292    0.5865 N.ar    1  UNL1       -0.2536
     26 C           1.9622   -0.5413    0.0663 C.ar    1  UNL1        0.0820
     27 C           0.5045   -0.4925   -0.0203 C.ar    1  UNL1        0.0179
     28 C          -0.4141   -1.5071    0.4039 C.ar    1  UNL1        0.0098
     29 C          -0.1172   -2.7210    0.9831 C.ar    1  UNL1        0.0101
     30 N          -1.2970   -3.3792    1.2420 N.ar    1  UNL1       -0.3659
     31 C          -2.3618   -2.6093    0.8436 C.ar    1  UNL1        0.0100
     32 C          -1.8494   -1.4495    0.3108 C.ar    1  UNL1        0.0083
     33 H          -6.9265    2.1748    2.3341 H       1  UNL1        0.1030
     34 H          -4.2130    1.7073    2.0826 H       1  UNL1        0.0655
     35 H          -7.3852   -0.9908   -1.3958 H       1  UNL1        0.0731
     36 H          -2.2261    1.5346   -1.0600 H       1  UNL1        0.0630
     37 H          -0.9102    3.1463   -1.7376 H       1  UNL1        0.0700
     38 H           3.5933    3.0834   -1.5051 H       1  UNL1        0.0700
     39 H           6.9773    2.1412   -0.9294 H       1  UNL1        0.0830
     40 H           8.0646    0.1097    0.0377 H       1  UNL1        0.0633
     41 H           6.5937   -1.7395    0.8113 H       1  UNL1        0.0625
     42 H           4.2689   -2.6250    1.1117 H       1  UNL1        0.0836
     43 H           0.8206   -3.1909    1.2440 H       1  UNL1        0.0813
     44 H          -1.3668   -4.2943    1.6678 H       1  UNL1        0.1648
     45 H          -3.3750   -2.9644    0.9761 H       1  UNL1        0.0813
@<TRIPOS>BOND
     1     1     2   ar
     2     2     3   ar
     3     3     4   ar
     4     4     5   ar
     5     5     6   ar
     6     6     7   ar
     7     7     8   ar
     8     4     9    1
     9     9    10   ar
    10    10    11   ar
    11    11    12   ar
    12    12    13   ar
    13    13    14   ar
    14    14    15   ar
    15    15    16   ar
    16    16    17   ar
    17    17    18   ar
    18    18    19   ar
    19    19    20   ar
    20    20    21   ar
    21    21    22   ar
    22    22    23   ar
    23    23    24   ar
    24    24    25   ar
    25    25    26   ar
    26    26    27   ar
    27    27    28   ar
    28    28    29   ar
    29    29    30   ar
    30    30    31   ar
    31    31    32   ar
    32     8     1   ar
    33    32     9   ar
    34     7     3   ar
    35    27    11   ar
    36    32    28   ar
    37    16    12   ar
    38    26    17   ar
    39    23    18   ar
    40     1    33    1
    41     2    34    1
    42     6    35    1
    43    10    36    1
    44    13    37    1
    45    15    38    1
    46    20    39    1
    47    21    40    1
    48    22    41    1
    49    24    42    1
    50    29    43    1
    51    30    44    1
    52    31    45    1
