@<TRIPOS>MOLECULE
*****
 45 53 0 0 0
SMALL
GASTEIGER

@<TRIPOS>ATOM
      1 C          -6.6402    1.4151    1.6165 C.ar    1  UNL1        0.0932
      2 C          -5.2633    1.1832    1.4969 C.ar    1  UNL1       -0.0150
      3 C          -5.1364    0.3011    0.4092 C.ar    1  UNL1        0.0350
      4 C          -4.1956   -0.3648   -0.2995 C.ar    1  UNL1        0.0323
      5 S          -5.0218   -1.2603   -1.5486 S.2     1  UNL1       -0.0922
      6 C          -6.5956   -0.7231   -1.0528 C.ar    1  UNL1        0.0192
      7 C          -6.4306    0.0993   -0.0016 C.ar    1  UNL1        0.1424
      8 O          -7.4119    0.7468    0.6825 O.2     1  UNL1       -0.4624
      9 C          -2.7494   -0.3865   -0.1985 C.ar    1  UNL1        0.0182
     10 C          -1.9674    0.7627   -0.3482 C.ar    1  UNL1       -0.0430
     11 C          -0.5337    0.7698   -0.2410 C.ar    1  UNL1       -0.0063
     12 C           0.2444    1.9594   -0.3034 C.ar    1  UNL1       -0.0025
     13 C          -0.3224    3.2060   -0.4794 C.ar    1  UNL1       -0.0160
     14 S           0.8364    4.4569   -0.5102 S.2     1  UNL1       -0.1038
     15 C           2.1147    3.3417   -0.2883 C.ar    1  UNL1       -0.0160
     16 C           1.6941    2.0348   -0.1533 C.ar    1  UNL1       -0.0015
     17 C           2.5500    0.9153    0.0190 C.ar    1  UNL1        0.0059
     18 C           3.9816    0.9702    0.2346 C.ar    1  UNL1        0.0283
     19 S           5.0736    2.2902    0.5682 S.2     1  UNL1       -0.0960
     20 C           6.4599    1.2943    0.6403 C.ar    1  UNL1       -0.0231
     21 C           6.1602   -0.0296    0.4330 C.ar    1  UNL1       -0.0463
     22 C           4.7761   -0.1698    0.2299 C.ar    1  UNL1       -0.0011
     23 C           4.1187   -1.3943   -0.0402 C.ar    1  UNL1        0.0082
     24 C           4.6861   -2.6197   -0.2322 C.ar    1  UNL1        0.0100
     25 N           3.6333   -3.4336   -0.5705 N.ar    1  UNL1       -0.3659
     26 C           2.4632   -2.6958   -0.6017 C.ar    1  UNL1        0.0100
     27 C           2.7207   -1.4103   -0.1659 C.ar    1  UNL1        0.0084
     28 C           1.7902   -0.3348   -0.0518 C.ar    1  UNL1        0.0028
     29 C           0.2909   -0.3990   -0.0401 C.ar    1  UNL1        0.0193
     30 C          -0.5275   -1.5698    0.2587 C.ar    1  UNL1        0.1088
     31 N          -0.0902   -2.7541    0.7251 N.ar    1  UNL1       -0.1901
     32 S          -1.3832   -3.7567    0.9112 S.2     1  UNL1        0.1165
     33 N          -2.6051   -2.7478    0.4619 N.ar    1  UNL1       -0.1901
     34 C          -2.0488   -1.5608    0.1585 C.ar    1  UNL1        0.1087
     35 H          -7.2156    2.0191    2.3062 H       1  UNL1        0.1030
     36 H          -4.4911    1.6011    2.1265 H       1  UNL1        0.0655
     37 H          -7.5123   -1.0232   -1.5385 H       1  UNL1        0.0731
     38 H          -2.4984    1.6903   -0.5556 H       1  UNL1        0.0631
     39 H          -1.3578    3.4861   -0.6013 H       1  UNL1        0.0700
     40 H           3.1039    3.7639   -0.2943 H       1  UNL1        0.0700
     41 H           7.4304    1.7308    0.8323 H       1  UNL1        0.0694
     42 H           6.8978   -0.8211    0.4379 H       1  UNL1        0.0629
     43 H           5.7016   -2.9887   -0.2063 H       1  UNL1        0.0813
     44 H           3.7048   -4.4119   -0.8187 H       1  UNL1        0.1648
     45 H           1.5658   -3.1824   -0.9521 H       1  UNL1        0.0813
@<TRIPOS>BOND
     1     1     2   ar
     2     2     3   ar
     3     3     4   ar
     4     4     5   ar
     5     5     6   ar
     6     6     7   ar
     7     7     8   ar
     8     4     9    1
     9     9    10   ar
    10    10    11   ar
    11    11    12   ar
    12    12    13   ar
    13    13    14   ar
    14    14    15   ar
    15    15    16   ar
    16    16    17   ar
    17    17    18   ar
    18    18    19   ar
    19    19    20   ar
    20    20    21   ar
    21    21    22   ar
    22    22    23   ar
    23    23    24   ar
    24    24    25   ar
    25    25    26   ar
    26    26    27   ar
    27    27    28   ar
    28    28    29   ar
    29    29    30   ar
    30    30    31   ar
    31    31    32   ar
    32    32    33   ar
    33    33    34   ar
    34     8     1   ar
    35    34     9   ar
    36     7     3   ar
    37    29    11   ar
    38    34    30   ar
    39    16    12   ar
    40    28    17   ar
    41    22    18   ar
    42    27    23   ar
    43     1    35    1
    44     2    36    1
    45     6    37    1
    46    10    38    1
    47    13    39    1
    48    15    40    1
    49    20    41    1
    50    21    42    1
    51    24    43    1
    52    25    44    1
    53    26    45    1
