@<TRIPOS>MOLECULE
*****
 33 38 0 0 0
SMALL
GASTEIGER

@<TRIPOS>ATOM
      1 C          -6.0302   -0.5070    2.2537 C.ar    1  UNL1        0.0932
      2 C          -4.6587   -0.4649    1.9739 C.ar    1  UNL1       -0.0150
      3 C          -4.5641   -0.2062    0.5889 C.ar    1  UNL1        0.0354
      4 C          -3.6516   -0.0272   -0.4031 C.ar    1  UNL1        0.0368
      5 S          -4.5700    0.2553   -1.8747 S.2     1  UNL1       -0.0918
      6 C          -6.1065    0.1218   -1.1002 C.ar    1  UNL1        0.0192
      7 C          -5.8815   -0.1236    0.2005 C.ar    1  UNL1        0.1424
      8 O          -6.8366   -0.2950    1.1540 O.2     1  UNL1       -0.4624
      9 C          -2.2039   -0.0454   -0.3639 C.ar    1  UNL1        0.0277
     10 C          -1.3982   -0.2582    0.7397 C.ar    1  UNL1       -0.0386
     11 C           0.0084   -0.2153    0.4546 C.ar    1  UNL1       -0.0091
     12 C           1.1229   -0.3804    1.2915 C.ar    1  UNL1       -0.0391
     13 C           2.4255   -0.2962    0.7898 C.ar    1  UNL1        0.0211
     14 S           3.8868   -0.4715    1.6672 S.2     1  UNL1       -0.0881
     15 C           4.8601   -0.2187    0.2783 C.ar    1  UNL1        0.0234
     16 C           6.2593   -0.2183    0.2201 C.ar    1  UNL1       -0.0292
     17 C           6.8157    0.0104   -1.0232 C.ar    1  UNL1        0.0286
     18 N           6.1047    0.2257   -2.1443 N.ar    1  UNL1       -0.2626
     19 C           4.7533    0.2226   -2.0733 C.ar    1  UNL1        0.0363
     20 C           4.0817   -0.0000   -0.8580 C.ar    1  UNL1        0.0150
     21 C           2.6624   -0.0455   -0.5582 C.ar    1  UNL1       -0.0006
     22 C           1.5405    0.1194   -1.3938 C.ar    1  UNL1       -0.0385
     23 C           0.2393    0.0350   -0.8911 C.ar    1  UNL1        0.0206
     24 S          -1.2312    0.2079   -1.7557 S.2     1  UNL1       -0.0877
     25 H          -6.5773   -0.6750    3.1725 H       1  UNL1        0.1030
     26 H          -3.8724   -0.6067    2.6996 H       1  UNL1        0.0655
     27 H          -7.0519    0.2247   -1.6122 H       1  UNL1        0.0731
     28 H          -1.7807   -0.4415    1.7341 H       1  UNL1        0.0635
     29 H           0.9677   -0.5776    2.3504 H       1  UNL1        0.0635
     30 H           6.8725   -0.3870    1.0966 H       1  UNL1        0.0644
     31 H           7.8948    0.0266   -1.1525 H       1  UNL1        0.0830
     32 H           4.2313    0.4014   -3.0073 H       1  UNL1        0.0836
     33 H           1.6878    0.3168   -2.4538 H       1  UNL1        0.0635
@<TRIPOS>BOND
     1     1     2   ar
     2     2     3   ar
     3     3     4   ar
     4     4     5   ar
     5     5     6   ar
     6     6     7   ar
     7     7     8   ar
     8     4     9    1
     9     9    10   ar
    10    10    11   ar
    11    11    12   ar
    12    12    13   ar
    13    13    14   ar
    14    14    15   ar
    15    15    16   ar
    16    16    17   ar
    17    17    18   ar
    18    18    19   ar
    19    19    20   ar
    20    20    21   ar
    21    21    22   ar
    22    22    23   ar
    23    23    24   ar
    24     8     1   ar
    25    24     9   ar
    26     7     3   ar
    27    23    11   ar
    28    21    13   ar
    29    20    15   ar
    30     1    25    1
    31     2    26    1
    32     6    27    1
    33    10    28    1
    34    12    29    1
    35    16    30    1
    36    17    31    1
    37    19    32    1
    38    22    33    1
