@<TRIPOS>MOLECULE
*****
 40 46 0 0 0
SMALL
GASTEIGER

@<TRIPOS>ATOM
      1 C          -6.0024   -1.8454    0.7706 C.ar    1  UNL1        0.0932
      2 C          -4.6204   -1.6593    0.6322 C.ar    1  UNL1       -0.0150
      3 C          -4.4710   -0.3119    0.2609 C.ar    1  UNL1        0.0349
      4 C          -3.5136    0.5917   -0.0478 C.ar    1  UNL1        0.0308
      5 S          -4.3121    2.1043   -0.3865 S.2     1  UNL1       -0.0923
      6 C          -5.9004    1.4560   -0.1201 C.ar    1  UNL1        0.0192
      7 C          -5.7584    0.1613    0.2160 C.ar    1  UNL1        0.1424
      8 O          -6.7566   -0.7132    0.5154 O.2     1  UNL1       -0.4624
      9 C          -2.0745    0.4859   -0.0854 C.ar    1  UNL1       -0.0009
     10 C          -1.2620    0.3326    1.0600 C.ar    1  UNL1       -0.0451
     11 C           0.1752    0.2081    1.0425 C.ar    1  UNL1       -0.0146
     12 C           0.8458    0.0723    2.2567 C.ar    1  UNL1       -0.0533
     13 C           2.2333   -0.0521    2.3030 C.ar    1  UNL1       -0.0509
     14 C           2.9990   -0.0445    1.1163 C.ar    1  UNL1        0.0153
     15 C           4.4193   -0.1712    1.1520 C.ar    1  UNL1        0.0299
     16 S           5.4651   -0.3494    2.5261 S.2     1  UNL1       -0.0959
     17 C           6.8676   -0.4113    1.5658 C.ar    1  UNL1       -0.0231
     18 C           6.5760   -0.3017    0.2287 C.ar    1  UNL1       -0.0455
     19 C           5.1693   -0.1628   -0.0268 C.ar    1  UNL1        0.0079
     20 C           4.4817   -0.0269   -1.2345 C.ar    1  UNL1        0.0365
     21 N           3.1369    0.0927   -1.2712 N.ar    1  UNL1       -0.2537
     22 C           2.3910    0.0882   -0.1457 C.ar    1  UNL1        0.0804
     23 C           0.9698    0.2148   -0.1633 C.ar    1  UNL1        0.0172
     24 C           0.1153    0.3586   -1.2975 C.ar    1  UNL1        0.0097
     25 C           0.4750    0.3977   -2.6243 C.ar    1  UNL1        0.0101
     26 N          -0.6726    0.5343   -3.3710 N.ar    1  UNL1       -0.3659
     27 C          -1.7712    0.5798   -2.5446 C.ar    1  UNL1        0.0100
     28 C          -1.3122    0.4848   -1.2521 C.ar    1  UNL1        0.0083
     29 H          -6.5926   -2.7119    1.0389 H       1  UNL1        0.1030
     30 H          -3.8565   -2.4091    0.7796 H       1  UNL1        0.0655
     31 H          -6.8076    2.0337   -0.2162 H       1  UNL1        0.0731
     32 H          -1.7681    0.3152    2.0277 H       1  UNL1        0.0630
     33 H           0.2952    0.0625    3.1961 H       1  UNL1        0.0624
     34 H           2.7066   -0.1541    3.2767 H       1  UNL1        0.0625
     35 H           7.8404   -0.5249    2.0247 H       1  UNL1        0.0694
     36 H           7.3354   -0.3193   -0.5437 H       1  UNL1        0.0629
     37 H           4.9842   -0.0104   -2.1958 H       1  UNL1        0.0836
     38 H           1.4368    0.3388   -3.1154 H       1  UNL1        0.0813
     39 H          -0.7016    0.5882   -4.3808 H       1  UNL1        0.1648
     40 H          -2.7652    0.6775   -2.9596 H       1  UNL1        0.0813
@<TRIPOS>BOND
     1     1     2   ar
     2     2     3   ar
     3     3     4   ar
     4     4     5   ar
     5     5     6   ar
     6     6     7   ar
     7     7     8   ar
     8     4     9    1
     9     9    10   ar
    10    10    11   ar
    11    11    12   ar
    12    12    13   ar
    13    13    14   ar
    14    14    15   ar
    15    15    16   ar
    16    16    17   ar
    17    17    18   ar
    18    18    19   ar
    19    19    20   ar
    20    20    21   ar
    21    21    22   ar
    22    22    23   ar
    23    23    24   ar
    24    24    25   ar
    25    25    26   ar
    26    26    27   ar
    27    27    28   ar
    28     8     1   ar
    29    28     9   ar
    30     7     3   ar
    31    23    11   ar
    32    28    24   ar
    33    22    14   ar
    34    19    15   ar
    35     1    29    1
    36     2    30    1
    37     6    31    1
    38    10    32    1
    39    12    33    1
    40    13    34    1
    41    17    35    1
    42    18    36    1
    43    20    37    1
    44    25    38    1
    45    26    39    1
    46    27    40    1
