@<TRIPOS>MOLECULE
*****
 49 56 0 0 0
SMALL
GASTEIGER

@<TRIPOS>ATOM
      1 C           7.3211    1.8161    0.8121 C.ar    1  UNL1        0.0932
      2 C           5.9421    1.5699    0.7922 C.ar    1  UNL1       -0.0150
      3 C           5.8219    0.1687    0.7681 C.ar    1  UNL1        0.0349
      4 C           4.8819   -0.8050    0.7481 C.ar    1  UNL1        0.0309
      5 S           5.7226   -2.3351    0.7581 S.2     1  UNL1       -0.0923
      6 C           7.2957   -1.6038    0.7782 C.ar    1  UNL1        0.0192
      7 C           7.1223   -0.2704    0.7830 C.ar    1  UNL1        0.1424
      8 O           8.1017    0.6736    0.8048 O.2     1  UNL1       -0.4624
      9 C           3.4364   -0.7594    0.7254 C.ar    1  UNL1        0.0005
     10 C           2.5974   -1.3455    1.6952 C.ar    1  UNL1       -0.0268
     11 C           1.1805   -1.2980    1.7099 C.ar    1  UNL1        0.0728
     12 N           0.6234   -1.9331    2.7405 N.ar    1  UNL1       -0.2543
     13 C          -0.7219   -1.9460    2.8451 C.ar    1  UNL1        0.0360
     14 C          -1.6032   -1.3364    1.9611 C.ar    1  UNL1        0.0014
     15 C          -2.9897   -1.4100    2.1729 C.ar    1  UNL1       -0.0448
     16 C          -3.9001   -0.7980    1.3030 C.ar    1  UNL1       -0.0166
     17 C          -5.2714   -0.8982    1.5550 C.ar    1  UNL1       -0.0534
     18 C          -6.1973   -0.2969    0.7085 C.ar    1  UNL1       -0.0534
     19 C          -5.7778    0.4216   -0.4128 C.ar    1  UNL1       -0.0173
     20 C          -6.7379    1.0178   -1.2482 C.ar    1  UNL1       -0.0540
     21 C          -6.3597    1.7416   -2.3753 C.ar    1  UNL1       -0.0612
     22 C          -5.0144    1.8771   -2.6797 C.ar    1  UNL1       -0.0611
     23 C          -4.0499    1.2882   -1.8558 C.ar    1  UNL1       -0.0534
     24 C          -4.3931    0.5431   -0.6984 C.ar    1  UNL1       -0.0102
     25 C          -3.4343   -0.0824    0.1811 C.ar    1  UNL1       -0.0096
     26 C          -2.0215   -0.0334    0.0032 C.ar    1  UNL1       -0.0450
     27 C          -1.0696   -0.6487    0.8617 C.ar    1  UNL1       -0.0060
     28 C           0.3799   -0.6287    0.7152 C.ar    1  UNL1        0.0173
     29 C           1.2471   -0.0481   -0.2774 C.ar    1  UNL1        0.0097
     30 C           0.9186    0.6458   -1.4200 C.ar    1  UNL1        0.0101
     31 N           2.0866    0.9875   -2.0707 N.ar    1  UNL1       -0.3659
     32 C           3.1687    0.5198   -1.3702 C.ar    1  UNL1        0.0100
     33 C           2.6841   -0.1174   -0.2535 C.ar    1  UNL1        0.0083
     34 H           7.8921    2.7351    0.8350 H       1  UNL1        0.1030
     35 H           5.1592    2.3147    0.7986 H       1  UNL1        0.0655
     36 H           8.2181   -2.1653    0.7883 H       1  UNL1        0.0731
     37 H           3.0733   -1.8803    2.5202 H       1  UNL1        0.0645
     38 H          -1.0862   -2.4908    3.7137 H       1  UNL1        0.0836
     39 H          -3.3656   -1.9561    3.0377 H       1  UNL1        0.0630
     40 H          -5.6383   -1.4489    2.4189 H       1  UNL1        0.0624
     41 H          -7.2561   -0.3973    0.9380 H       1  UNL1        0.0624
     42 H          -7.7985    0.9213   -1.0244 H       1  UNL1        0.0624
     43 H          -7.1144    2.1963   -3.0109 H       1  UNL1        0.0618
     44 H          -4.7081    2.4400   -3.5575 H       1  UNL1        0.0618
     45 H          -3.0119    1.4265   -2.1426 H       1  UNL1        0.0624
     46 H          -1.6498    0.5193   -0.8444 H       1  UNL1        0.0630
     47 H          -0.0119    0.9385   -1.8762 H       1  UNL1        0.0813
     48 H           2.1357    1.4934   -2.9461 H       1  UNL1        0.1648
     49 H           4.1722    0.6769   -1.7429 H       1  UNL1        0.0813
@<TRIPOS>BOND
     1     1     2   ar
     2     2     3   ar
     3     3     4   ar
     4     4     5   ar
     5     5     6   ar
     6     6     7   ar
     7     7     8   ar
     8     4     9    1
     9     9    10   ar
    10    10    11   ar
    11    11    12   ar
    12    12    13   ar
    13    13    14   ar
    14    14    15   ar
    15    15    16   ar
    16    16    17   ar
    17    17    18   ar
    18    18    19   ar
    19    19    20   ar
    20    20    21   ar
    21    21    22   ar
    22    22    23   ar
    23    23    24   ar
    24    24    25   ar
    25    25    26   ar
    26    26    27   ar
    27    27    28   ar
    28    28    29   ar
    29    29    30   ar
    30    30    31   ar
    31    31    32   ar
    32    32    33   ar
    33     8     1   ar
    34    33     9   ar
    35     7     3   ar
    36    28    11   ar
    37    33    29   ar
    38    27    14   ar
    39    25    16   ar
    40    24    19   ar
    41     1    34    1
    42     2    35    1
    43     6    36    1
    44    10    37    1
    45    13    38    1
    46    15    39    1
    47    17    40    1
    48    18    41    1
    49    20    42    1
    50    21    43    1
    51    22    44    1
    52    23    45    1
    53    26    46    1
    54    30    47    1
    55    31    48    1
    56    32    49    1
