@<TRIPOS>MOLECULE
*****
 47 54 0 0 0
SMALL
GASTEIGER

@<TRIPOS>ATOM
      1 SI         -1.3580    3.9583    1.6436 Si      1  UNL1        0.0000
      2 C           0.3360    3.3849    1.1342 C.2     1  UNL1        0.0000
      3 C           0.2980    2.1218    0.6675 C.ar    1  UNL1        0.0000
      4 C           1.4234    1.3017    0.3712 C.ar    1  UNL1        0.0000
      5 C           2.7969    1.5941    0.2364 C.ar    1  UNL1        0.0000
      6 C           3.4305    0.4142   -0.1123 C.ar    1  UNL1        0.0000
      7 N           2.4581   -0.5610   -0.1871 N.ar    1  UNL1        0.0000
      8 C           1.2371   -0.0558    0.1837 C.ar    1  UNL1        0.0000
      9 C          -0.0660   -0.7185    0.1801 C.ar    1  UNL1        0.0000
     10 C          -0.3116   -2.0987    0.2045 C.ar    1  UNL1        0.0000
     11 C           0.6377   -3.0571    0.4818 C.ar    1  UNL1        0.0000
     12 S          -0.0095   -4.6433    0.4517 S.2     1  UNL1        0.0000
     13 C          -1.5868   -4.0585    0.1277 C.ar    1  UNL1        0.0000
     14 C          -1.6309   -2.6831    0.0434 C.ar    1  UNL1        0.0000
     15 C          -2.8221   -1.9423   -0.2169 C.ar    1  UNL1        0.0000
     16 C          -4.1202   -2.5644   -0.4367 C.ar    1  UNL1        0.0000
     17 C          -5.2866   -1.8639   -0.7791 C.ar    1  UNL1        0.0000
     18 C          -5.0257   -0.5128   -0.9558 C.ar    1  UNL1        0.0000
     19 C          -6.0036    0.3358   -1.4164 C.ar    1  UNL1        0.0000
     20 S          -5.3800    1.9063   -1.6940 S.2     1  UNL1        0.0000
     21 C          -3.8027    1.4336   -1.2055 C.ar    1  UNL1        0.0000
     22 C          -3.7549    0.1420   -0.7248 C.ar    1  UNL1        0.0000
     23 C          -2.5620   -0.5042   -0.2445 C.ar    1  UNL1        0.0000
     24 C          -1.2605    0.0780    0.1213 C.ar    1  UNL1        0.0000
     25 C          -1.0623    1.5044    0.5861 C.ar    1  UNL1        0.0000
     26 C          -2.0135    2.2765    1.1583 C.2     1  UNL1        0.0000
     27 C           4.8081    0.1490   -0.3947 C.ar    1  UNL1        0.0000
     28 C           5.4428   -1.0294   -0.7431 C.ar    1  UNL1        0.0000
     29 C           6.8220   -0.7499   -0.9123 C.ar    1  UNL1        0.0000
     30 C           6.9994    0.5907   -0.6634 C.ar    1  UNL1        0.0000
     31 N           5.7765    1.1250   -0.3509 N.ar    1  UNL1        0.0000
     32 H          -1.8779    5.0371    0.7694 H       1  UNL1        0.0000
     33 H          -1.4607    4.2095    3.1011 H       1  UNL1        0.0000
     34 H           1.2126    3.9861    1.3124 H       1  UNL1        0.0000
     35 H           3.2633    2.5620    0.3529 H       1  UNL1        0.0000
     36 H           2.6296   -1.4999   -0.5115 H       1  UNL1        0.0000
     37 H           1.6795   -2.9445    0.7378 H       1  UNL1        0.0000
     38 H          -2.3841   -4.7803    0.0301 H       1  UNL1        0.0000
     39 H          -4.2162   -3.6454   -0.3491 H       1  UNL1        0.0000
     40 H          -6.2362   -2.3524   -0.9519 H       1  UNL1        0.0000
     41 H          -7.0382    0.1190   -1.6450 H       1  UNL1        0.0000
     42 H          -3.0043    2.1531   -1.3094 H       1  UNL1        0.0000
     43 H          -3.0441    2.0268    1.3520 H       1  UNL1        0.0000
     44 H           4.9756   -1.9970   -0.8660 H       1  UNL1        0.0000
     45 H           7.5990   -1.4520   -1.1857 H       1  UNL1        0.0000
     46 H           7.8857    1.2104   -0.6808 H       1  UNL1        0.0000
     47 H           5.6066    2.0942   -0.1218 H       1  UNL1        0.0000
@<TRIPOS>BOND
     1     1     2    1
     2     2     3    2
     3     3     4   ar
     4     4     5   ar
     5     5     6   ar
     6     6     7   ar
     7     7     8   ar
     8     8     9   ar
     9     9    10   ar
    10    10    11   ar
    11    11    12   ar
    12    12    13   ar
    13    13    14   ar
    14    14    15   ar
    15    15    16   ar
    16    16    17   ar
    17    17    18   ar
    18    18    19   ar
    19    19    20   ar
    20    20    21   ar
    21    21    22   ar
    22    22    23   ar
    23    23    24   ar
    24    24    25   ar
    25    25    26    2
    26     6    27    1
    27    27    28   ar
    28    28    29   ar
    29    29    30   ar
    30    30    31   ar
    31    26     1    1
    32    31    27   ar
    33    25     3   ar
    34     8     4   ar
    35    24     9   ar
    36    14    10   ar
    37    23    15   ar
    38    22    18   ar
    39     1    32    1
    40     1    33    1
    41     2    34    1
    42     5    35    1
    43     7    36    1
    44    11    37    1
    45    13    38    1
    46    16    39    1
    47    17    40    1
    48    19    41    1
    49    21    42    1
    50    26    43    1
    51    28    44    1
    52    29    45    1
    53    30    46    1
    54    31    47    1
