@<TRIPOS>MOLECULE
*****
 43 50 0 0 0
SMALL
GASTEIGER

@<TRIPOS>ATOM
      1 C           6.1051    1.5133    1.3757 C.ar    1  UNL1        0.0932
      2 C           4.7963    1.0126    1.3567 C.ar    1  UNL1       -0.0150
      3 C           4.4807    0.8748   -0.0058 C.ar    1  UNL1        0.0349
      4 C           3.4731    0.4770   -0.8157 C.ar    1  UNL1        0.0309
      5 S           4.0162    0.6660   -2.4619 S.2     1  UNL1       -0.0923
      6 C           5.5765    1.2689   -1.9956 C.ar    1  UNL1        0.0192
      7 C           5.6146    1.3004   -0.6513 C.ar    1  UNL1        0.1424
      8 O           6.6572    1.7080    0.1214 O.2     1  UNL1       -0.4624
      9 C           2.1345   -0.0351   -0.5258 C.ar    1  UNL1        0.0006
     10 C           1.0566    0.8518   -0.6988 C.ar    1  UNL1       -0.0099
     11 C          -0.2203    0.3854   -0.4011 C.ar    1  UNL1        0.1380
     12 O          -1.3431    1.1456   -0.5251 O.2     1  UNL1       -0.4536
     13 C          -2.3616    0.3315   -0.1405 C.ar    1  UNL1        0.1517
     14 C          -1.8984   -0.8971    0.2152 C.ar    1  UNL1        0.0668
     15 S          -3.2186   -1.9442    0.7124 S.2     1  UNL1       -0.0843
     16 C          -4.3912   -0.6848    0.4266 C.ar    1  UNL1        0.0242
     17 C          -5.8097   -0.6961    0.5908 C.ar    1  UNL1       -0.0466
     18 C          -6.6030    0.4456    0.3015 C.ar    1  UNL1       -0.0499
     19 C          -5.8475    1.5268   -0.1431 C.ar    1  UNL1        0.0206
     20 C          -6.3180    2.7668   -0.5017 C.ar    1  UNL1        0.0994
     21 O          -5.2732    3.5757   -0.8886 O.2     1  UNL1       -0.4698
     22 C          -4.1144    2.8433   -0.7768 C.ar    1  UNL1        0.1001
     23 C          -4.4604    1.6097   -0.3277 C.ar    1  UNL1        0.0316
     24 C          -3.7333    0.4411   -0.0219 C.ar    1  UNL1        0.0428
     25 C          -0.4801   -0.8990    0.0556 C.ar    1  UNL1        0.0423
     26 C           0.6025   -1.8007    0.2332 C.ar    1  UNL1       -0.0054
     27 C           0.3652   -3.1129    0.6961 C.ar    1  UNL1       -0.0533
     28 C           1.4210   -4.0049    0.8681 C.ar    1  UNL1       -0.0611
     29 C           2.7189   -3.6034    0.5800 C.ar    1  UNL1       -0.0611
     30 C           2.9669   -2.3064    0.1212 C.ar    1  UNL1       -0.0534
     31 C           1.9256   -1.3653   -0.0625 C.ar    1  UNL1       -0.0088
     32 H           6.7674    1.7771    2.1900 H       1  UNL1        0.1030
     33 H           4.1855    0.7890    2.2197 H       1  UNL1        0.0655
     34 H           6.3439    1.5540   -2.7001 H       1  UNL1        0.0731
     35 H           1.2019    1.8694   -1.0465 H       1  UNL1        0.0661
     36 H          -6.2967   -1.6024    0.9468 H       1  UNL1        0.0629
     37 H          -7.6787    0.4505    0.4215 H       1  UNL1        0.0625
     38 H          -7.2945    3.2282   -0.5444 H       1  UNL1        0.1035
     39 H          -3.1997    3.3500   -1.0492 H       1  UNL1        0.1036
     40 H          -0.6396   -3.4558    0.9256 H       1  UNL1        0.0624
     41 H           1.2285   -5.0140    1.2235 H       1  UNL1        0.0618
     42 H           3.5449   -4.2989    0.7078 H       1  UNL1        0.0618
     43 H           3.9993   -2.0416   -0.0993 H       1  UNL1        0.0624
@<TRIPOS>BOND
     1     1     2   ar
     2     2     3   ar
     3     3     4   ar
     4     4     5   ar
     5     5     6   ar
     6     6     7   ar
     7     7     8   ar
     8     4     9    1
     9     9    10   ar
    10    10    11   ar
    11    11    12   ar
    12    12    13   ar
    13    13    14   ar
    14    14    15   ar
    15    15    16   ar
    16    16    17   ar
    17    17    18   ar
    18    18    19   ar
    19    19    20   ar
    20    20    21   ar
    21    21    22   ar
    22    22    23   ar
    23    23    24   ar
    24    14    25   ar
    25    25    26   ar
    26    26    27   ar
    27    27    28   ar
    28    28    29   ar
    29    29    30   ar
    30    30    31   ar
    31     8     1   ar
    32    31     9   ar
    33     7     3   ar
    34    25    11   ar
    35    31    26   ar
    36    24    13   ar
    37    24    16   ar
    38    23    19   ar
    39     1    32    1
    40     2    33    1
    41     6    34    1
    42    10    35    1
    43    17    36    1
    44    18    37    1
    45    20    38    1
    46    22    39    1
    47    27    40    1
    48    28    41    1
    49    29    42    1
    50    30    43    1
