@<TRIPOS>MOLECULE
*****
 43 50 0 0 0
SMALL
GASTEIGER

@<TRIPOS>ATOM
      1 C          -6.8602   -1.4423   -1.1699 C.ar    1  UNL1        0.0932
      2 C          -5.5215   -1.0335   -1.2341 C.ar    1  UNL1       -0.0150
      3 C          -5.1463   -0.8059    0.1018 C.ar    1  UNL1        0.0349
      4 C          -4.0831   -0.4164    0.8428 C.ar    1  UNL1        0.0308
      5 S          -4.5760   -0.4463    2.5161 S.2     1  UNL1       -0.0923
      6 C          -6.1897   -0.9700    2.1509 C.ar    1  UNL1        0.0192
      7 C          -6.2808   -1.1016    0.8156 C.ar    1  UNL1        0.1424
      8 O          -7.3764   -1.4966    0.1129 O.2     1  UNL1       -0.4624
      9 C          -2.7352   -0.0266    0.4786 C.ar    1  UNL1       -0.0013
     10 C          -1.6061   -0.7808    0.8354 C.ar    1  UNL1       -0.0385
     11 C          -0.2946   -0.3972    0.4425 C.ar    1  UNL1        0.0217
     12 S           1.1506   -1.2306    0.8092 S.2     1  UNL1       -0.0876
     13 C           2.1665   -0.1093   -0.0250 C.ar    1  UNL1        0.0289
     14 C           1.3994    0.9273   -0.6007 C.ar    1  UNL1       -0.0019
     15 C           2.1108    1.9221   -1.3221 C.ar    1  UNL1       -0.0523
     16 C           3.5037    1.8968   -1.4667 C.ar    1  UNL1       -0.0534
     17 C           4.2685    0.8874   -0.9068 C.ar    1  UNL1       -0.0161
     18 C           5.7024    0.9104   -1.0869 C.ar    1  UNL1       -0.0533
     19 C           6.6028   -0.0490   -0.5751 C.ar    1  UNL1       -0.0504
     20 C           5.9119   -1.0198    0.1276 C.ar    1  UNL1        0.0205
     21 C           6.4692   -2.0994    0.7562 C.ar    1  UNL1        0.0994
     22 O           5.4830   -2.8362    1.3430 O.2     1  UNL1       -0.4698
     23 C           4.2922   -2.2136    1.0811 C.ar    1  UNL1        0.1000
     24 C           4.4957   -1.0808    0.3300 C.ar    1  UNL1        0.0286
     25 C           3.5800   -0.1361   -0.1706 C.ar    1  UNL1        0.0072
     26 C           0.0070    0.7251   -0.3094 C.ar    1  UNL1        0.0052
     27 C          -1.1344    1.5457   -0.6983 C.ar    1  UNL1       -0.0015
     28 C          -1.1237    2.7017   -1.4258 C.ar    1  UNL1       -0.0160
     29 S          -2.7237    3.3083   -1.6088 S.2     1  UNL1       -0.1038
     30 C          -3.3896    2.0096   -0.7022 C.ar    1  UNL1       -0.0160
     31 C          -2.4297    1.1121   -0.2769 C.ar    1  UNL1       -0.0020
     32 H          -7.5683   -1.7256   -1.9379 H       1  UNL1        0.1030
     33 H          -4.9298   -0.9262   -2.1320 H       1  UNL1        0.0655
     34 H          -6.9473   -1.1467    2.9002 H       1  UNL1        0.0731
     35 H          -1.7347   -1.6905    1.4211 H       1  UNL1        0.0635
     36 H           1.5962    2.7488   -1.7950 H       1  UNL1        0.0624
     37 H           3.9748    2.6973   -2.0352 H       1  UNL1        0.0624
     38 H           6.1377    1.7302   -1.6630 H       1  UNL1        0.0624
     39 H           7.6719   -0.0073   -0.7250 H       1  UNL1        0.0625
     40 H           7.4737   -2.4772    0.8829 H       1  UNL1        0.1035
     41 H           3.4356   -2.7164    1.5032 H       1  UNL1        0.1036
     42 H          -0.3243    3.2645   -1.8723 H       1  UNL1        0.0700
     43 H          -4.4584    1.9948   -0.5377 H       1  UNL1        0.0700
@<TRIPOS>BOND
     1     1     2   ar
     2     2     3   ar
     3     3     4   ar
     4     4     5   ar
     5     5     6   ar
     6     6     7   ar
     7     7     8   ar
     8     4     9    1
     9     9    10   ar
    10    10    11   ar
    11    11    12   ar
    12    12    13   ar
    13    13    14   ar
    14    14    15   ar
    15    15    16   ar
    16    16    17   ar
    17    17    18   ar
    18    18    19   ar
    19    19    20   ar
    20    20    21   ar
    21    21    22   ar
    22    22    23   ar
    23    23    24   ar
    24    24    25   ar
    25    14    26   ar
    26    26    27   ar
    27    27    28   ar
    28    28    29   ar
    29    29    30   ar
    30    30    31   ar
    31     8     1   ar
    32    31     9   ar
    33     7     3   ar
    34    26    11   ar
    35    31    27   ar
    36    25    13   ar
    37    25    17   ar
    38    24    20   ar
    39     1    32    1
    40     2    33    1
    41     6    34    1
    42    10    35    1
    43    15    36    1
    44    16    37    1
    45    18    38    1
    46    19    39    1
    47    21    40    1
    48    23    41    1
    49    28    42    1
    50    30    43    1
