@<TRIPOS>MOLECULE
*****
 36 41 0 0 0
SMALL
GASTEIGER

@<TRIPOS>ATOM
      1 C           7.6031    0.7438   -0.6352 C.ar    1  UNL1        0.0932
      2 C           6.2593    1.0225   -0.9153 C.ar    1  UNL1       -0.0150
      3 C           5.5191    0.1833   -0.0583 C.ar    1  UNL1        0.0363
      4 C           4.2436   -0.1369    0.2716 C.ar    1  UNL1        0.0463
      5 S           4.3311   -1.3622    1.5197 S.2     1  UNL1       -0.0908
      6 C           6.0611   -1.3898    1.5429 C.ar    1  UNL1        0.0192
      7 C           6.4917   -0.4985    0.6336 C.ar    1  UNL1        0.1424
      8 O           7.7901   -0.2155    0.3416 O.2     1  UNL1       -0.4624
      9 C           2.9939    0.3583   -0.2293 C.ar    1  UNL1        0.0543
     10 C           2.7272    1.3089   -1.1970 C.ar    1  UNL1       -0.0352
     11 C           1.3180    1.4313   -1.3177 C.ar    1  UNL1       -0.0338
     12 C           0.7447    0.5526   -0.4210 C.ar    1  UNL1        0.0723
     13 N           1.7743   -0.0865    0.2272 N.ar    1  UNL1       -0.3521
     14 C          -0.6174    0.2470   -0.1058 C.ar    1  UNL1        0.1249
     15 N          -0.9149   -0.6489    0.8077 N.ar    1  UNL1       -0.2452
     16 C          -2.2920   -0.7530    0.9176 C.ar    1  UNL1        0.0438
     17 C          -3.0512    0.0610    0.0906 C.ar    1  UNL1        0.0471
     18 S          -1.9502    0.9958   -0.8648 S.2     1  UNL1       -0.0652
     19 C          -4.4890    0.1840   -0.0306 C.ar    1  UNL1        0.0417
     20 S          -5.2517    1.2830   -1.1483 S.2     1  UNL1       -0.0944
     21 C          -6.8415    0.8387   -0.6910 C.ar    1  UNL1       -0.0155
     22 C          -6.7444   -0.1036    0.2688 C.ar    1  UNL1       -0.0032
     23 C          -7.7267   -0.8145    0.9959 C.ar    1  UNL1       -0.0465
     24 C          -7.1679   -1.7120    1.9087 C.ar    1  UNL1       -0.0231
     25 S          -5.4164   -1.7710    1.9638 S.2     1  UNL1       -0.0955
     26 C          -5.4633   -0.4981    0.6670 C.ar    1  UNL1        0.0346
     27 H           8.5246    1.1401   -1.0416 H       1  UNL1        0.1030
     28 H           5.9021    1.7367   -1.6419 H       1  UNL1        0.0655
     29 H           6.6452   -2.0269    2.1904 H       1  UNL1        0.0731
     30 H           3.4604    1.8647   -1.7653 H       1  UNL1        0.0639
     31 H           0.7896    2.0939   -1.9913 H       1  UNL1        0.0640
     32 H           1.6368   -0.7889    0.9432 H       1  UNL1        0.1660
     33 H          -2.6741   -1.4607    1.6396 H       1  UNL1        0.0841
     34 H          -7.7134    1.2874   -1.1458 H       1  UNL1        0.0700
     35 H          -8.7973   -0.6967    0.8789 H       1  UNL1        0.0629
     36 H          -7.7046   -2.3692    2.5798 H       1  UNL1        0.0694
@<TRIPOS>BOND
     1     1     2   ar
     2     2     3   ar
     3     3     4   ar
     4     4     5   ar
     5     5     6   ar
     6     6     7   ar
     7     7     8   ar
     8     4     9    1
     9     9    10   ar
    10    10    11   ar
    11    11    12   ar
    12    12    13   ar
    13    12    14    1
    14    14    15   ar
    15    15    16   ar
    16    16    17   ar
    17    17    18   ar
    18    17    19    1
    19    19    20   ar
    20    20    21   ar
    21    21    22   ar
    22    22    23   ar
    23    23    24   ar
    24    24    25   ar
    25    25    26   ar
    26     8     1   ar
    27    13     9   ar
    28    18    14   ar
    29    26    19   ar
    30     7     3   ar
    31    26    22   ar
    32     1    27    1
    33     2    28    1
    34     6    29    1
    35    10    30    1
    36    11    31    1
    37    13    32    1
    38    16    33    1
    39    21    34    1
    40    23    35    1
    41    24    36    1
