@<TRIPOS>MOLECULE
*****
 48 54 0 0 0
SMALL
GASTEIGER

@<TRIPOS>ATOM
      1 C          -6.7817    0.5577    2.6309 C.ar    1  UNL1        0.0932
      2 C          -5.4425    0.4082    2.2466 C.ar    1  UNL1       -0.0150
      3 C          -5.3744    0.9499    0.9516 C.ar    1  UNL1        0.0349
      4 C          -4.4918    1.1704   -0.0493 C.ar    1  UNL1        0.0307
      5 S          -5.3583    1.9378   -1.3538 S.2     1  UNL1       -0.0923
      6 C          -6.8722    1.9275   -0.5029 C.ar    1  UNL1        0.0192
      7 C          -6.6590    1.3609    0.6985 C.ar    1  UNL1        0.1424
      8 O          -7.5837    1.1575    1.6753 O.2     1  UNL1       -0.4624
      9 C          -3.0632    0.8832   -0.1681 C.ar    1  UNL1       -0.0029
     10 C          -2.1739    1.9557   -0.0182 C.ar    1  UNL1       -0.0523
     11 C          -0.8020    1.7497   -0.0898 C.ar    1  UNL1       -0.0522
     12 C          -0.2856    0.4657   -0.3095 C.ar    1  UNL1        0.0000
     13 C           1.1608    0.3275   -0.3683 C.ar    1  UNL1        0.0633
     14 S           2.1620    0.1712    1.0289 S.2     1  UNL1       -0.0838
     15 C           3.6418    0.0754    0.0987 C.ar    1  UNL1        0.0308
     16 C           4.9386   -0.1015    0.7525 C.ar    1  UNL1       -0.0106
     17 C           5.8573   -1.0349    0.2497 C.ar    1  UNL1       -0.0535
     18 C           7.1040   -1.2094    0.8562 C.ar    1  UNL1       -0.0612
     19 C           7.4492   -0.4501    1.9716 C.ar    1  UNL1       -0.0617
     20 C           6.5494    0.4831    2.4810 C.ar    1  UNL1       -0.0612
     21 C           5.3020    0.6571    1.8749 C.ar    1  UNL1       -0.0535
     22 C           3.2946    0.1675   -1.2090 C.ar    1  UNL1        0.0355
     23 C           3.8745    0.1824   -2.4912 C.ar    1  UNL1       -0.0150
     24 C           2.7989    0.3271   -3.3766 C.ar    1  UNL1        0.0932
     25 O           1.5644    0.4099   -2.7602 O.2     1  UNL1       -0.4617
     26 C           1.9503    0.3084   -1.4581 C.ar    1  UNL1        0.1501
     27 C          -1.1636   -0.6439   -0.4668 C.ar    1  UNL1       -0.0090
     28 C          -0.6948   -1.9630   -0.6900 C.ar    1  UNL1       -0.0534
     29 C          -1.5630   -3.0431   -0.8464 C.ar    1  UNL1       -0.0611
     30 C          -2.9300   -2.8365   -0.7866 C.ar    1  UNL1       -0.0611
     31 C          -3.4242   -1.5510   -0.5669 C.ar    1  UNL1       -0.0534
     32 C          -2.5698   -0.4325   -0.3972 C.ar    1  UNL1       -0.0091
     33 H          -7.3085    0.2906    3.5378 H       1  UNL1        0.1030
     34 H          -4.6529   -0.0337    2.8375 H       1  UNL1        0.0655
     35 H          -7.7917    2.3195   -0.9115 H       1  UNL1        0.0731
     36 H          -2.5492    2.9616    0.1598 H       1  UNL1        0.0624
     37 H          -0.1322    2.5996    0.0259 H       1  UNL1        0.0624
     38 H           5.6048   -1.6471   -0.6132 H       1  UNL1        0.0624
     39 H           7.8033   -1.9407    0.4589 H       1  UNL1        0.0618
     40 H           8.4186   -0.5858    2.4443 H       1  UNL1        0.0618
     41 H           6.8171    1.0787    3.3501 H       1  UNL1        0.0618
     42 H           4.6221    1.4004    2.2853 H       1  UNL1        0.0624
     43 H           4.9173    0.1082   -2.7641 H       1  UNL1        0.0655
     44 H           2.7527    0.3897   -4.4561 H       1  UNL1        0.1030
     45 H           0.3723   -2.1681   -0.7490 H       1  UNL1        0.0624
     46 H          -1.1658   -4.0397   -1.0190 H       1  UNL1        0.0618
     47 H          -3.6165   -3.6693   -0.9136 H       1  UNL1        0.0618
     48 H          -4.5056   -1.4319   -0.5365 H       1  UNL1        0.0624
@<TRIPOS>BOND
     1     1     2   ar
     2     2     3   ar
     3     3     4   ar
     4     4     5   ar
     5     5     6   ar
     6     6     7   ar
     7     7     8   ar
     8     4     9    1
     9     9    10   ar
    10    10    11   ar
    11    11    12   ar
    12    12    13    1
    13    13    14   ar
    14    14    15   ar
    15    15    16    1
    16    16    17   ar
    17    17    18   ar
    18    18    19   ar
    19    19    20   ar
    20    20    21   ar
    21    15    22   ar
    22    22    23   ar
    23    23    24   ar
    24    24    25   ar
    25    25    26   ar
    26    12    27   ar
    27    27    28   ar
    28    28    29   ar
    29    29    30   ar
    30    30    31   ar
    31    31    32   ar
    32     8     1   ar
    33    32     9   ar
    34     7     3   ar
    35    26    13   ar
    36    32    27   ar
    37    21    16   ar
    38    26    22   ar
    39     1    33    1
    40     2    34    1
    41     6    35    1
    42    10    36    1
    43    11    37    1
    44    17    38    1
    45    18    39    1
    46    19    40    1
    47    20    41    1
    48    21    42    1
    49    23    43    1
    50    24    44    1
    51    28    45    1
    52    29    46    1
    53    30    47    1
    54    31    48    1
