@<TRIPOS>MOLECULE
*****
 40 44 0 0 0
SMALL
GASTEIGER

@<TRIPOS>ATOM
      1 C           7.4177   -0.1510   -0.7084 C.ar    1  UNL1        0.0932
      2 C           6.0548    0.1687   -0.6530 C.ar    1  UNL1       -0.0150
      3 C           5.4252   -0.9936   -0.1697 C.ar    1  UNL1        0.0349
      4 C           4.1978   -1.4672    0.1554 C.ar    1  UNL1        0.0302
      5 S           4.4172   -3.1120    0.7106 S.2     1  UNL1       -0.0923
      6 C           6.1360   -3.0855    0.4897 C.ar    1  UNL1        0.0192
      7 C           6.4644   -1.8713    0.0156 C.ar    1  UNL1        0.1424
      8 O           7.7159   -1.4362   -0.2929 O.2     1  UNL1       -0.4624
      9 C           2.8683   -0.8618    0.0817 C.ar    1  UNL1       -0.0106
     10 C           1.9528   -0.9749    1.1360 C.ar    1  UNL1       -0.0529
     11 C           0.6873   -0.3804    1.0544 C.ar    1  UNL1       -0.0520
     12 C           0.3076    0.3416   -0.0834 C.ar    1  UNL1       -0.0017
     13 C           1.2249    0.4625   -1.1334 C.ar    1  UNL1       -0.0520
     14 C           2.4897   -0.1323   -1.0524 C.ar    1  UNL1       -0.0529
     15 C          -1.0129    0.9648   -0.1799 C.ar    1  UNL1        0.0469
     16 C          -1.4126    2.1433   -0.7840 C.ar    1  UNL1       -0.0358
     17 C          -2.8106    2.2777   -0.6053 C.ar    1  UNL1       -0.0358
     18 C          -3.2606    1.1811    0.1075 C.ar    1  UNL1        0.0469
     19 N          -2.1541    0.3930    0.3407 N.ar    1  UNL1       -0.3542
     20 C          -4.6084    0.8135    0.5451 C.ar    1  UNL1       -0.0017
     21 C          -5.7196    1.1276   -0.2490 C.ar    1  UNL1       -0.0526
     22 C          -7.0101    0.7778    0.1574 C.ar    1  UNL1       -0.0611
     23 C          -7.2047    0.1132    1.3658 C.ar    1  UNL1       -0.0617
     24 C          -6.1104   -0.1999    2.1689 C.ar    1  UNL1       -0.0611
     25 C          -4.8196    0.1487    1.7614 C.ar    1  UNL1       -0.0526
     26 H           8.2840    0.4217   -1.0133 H       1  UNL1        0.1030
     27 H           5.6122    1.1164   -0.9236 H       1  UNL1        0.0655
     28 H           6.7831   -3.9221    0.7081 H       1  UNL1        0.0731
     29 H           2.2180   -1.5134    2.0433 H       1  UNL1        0.0624
     30 H           0.0159   -0.4721    1.9042 H       1  UNL1        0.0624
     31 H           0.9593    1.0096   -2.0351 H       1  UNL1        0.0624
     32 H           3.1694   -0.0300   -1.8955 H       1  UNL1        0.0624
     33 H          -0.7638    2.8431   -1.2947 H       1  UNL1        0.0639
     34 H          -3.4242    3.0983   -0.9542 H       1  UNL1        0.0639
     35 H          -2.1838   -0.5081    0.7951 H       1  UNL1        0.1659
     36 H          -5.5888    1.6384   -1.2000 H       1  UNL1        0.0624
     37 H          -7.8613    1.0247   -0.4716 H       1  UNL1        0.0618
     38 H          -8.2086   -0.1568    1.6830 H       1  UNL1        0.0618
     39 H          -6.2612   -0.7100    3.1168 H       1  UNL1        0.0618
     40 H          -3.9861   -0.0869    2.4176 H       1  UNL1        0.0624
@<TRIPOS>BOND
     1     1     2   ar
     2     2     3   ar
     3     3     4   ar
     4     4     5   ar
     5     5     6   ar
     6     6     7   ar
     7     7     8   ar
     8     4     9    1
     9     9    10   ar
    10    10    11   ar
    11    11    12   ar
    12    12    13   ar
    13    13    14   ar
    14    12    15    1
    15    15    16   ar
    16    16    17   ar
    17    17    18   ar
    18    18    19   ar
    19    18    20    1
    20    20    21   ar
    21    21    22   ar
    22    22    23   ar
    23    23    24   ar
    24    24    25   ar
    25     8     1   ar
    26    14     9   ar
    27    19    15   ar
    28    25    20   ar
    29     7     3   ar
    30     1    26    1
    31     2    27    1
    32     6    28    1
    33    10    29    1
    34    11    30    1
    35    13    31    1
    36    14    32    1
    37    16    33    1
    38    17    34    1
    39    19    35    1
    40    21    36    1
    41    22    37    1
    42    23    38    1
    43    24    39    1
    44    25    40    1
