@<TRIPOS>MOLECULE
*****
 43 50 0 0 0
SMALL
GASTEIGER

@<TRIPOS>ATOM
      1 C           6.4669    2.4694   -0.7302 C.ar    1  UNL1        0.0932
      2 C           5.0932    2.2032   -0.6580 C.ar    1  UNL1       -0.0150
      3 C           4.9997    0.9011   -0.1323 C.ar    1  UNL1        0.0349
      4 C           4.0776   -0.0303    0.2123 C.ar    1  UNL1        0.0302
      5 S           4.9570   -1.4264    0.7947 S.2     1  UNL1       -0.0923
      6 C           6.5118   -0.7035    0.5426 C.ar    1  UNL1        0.0192
      7 C           6.3092    0.5294    0.0467 C.ar    1  UNL1        0.1424
      8 O           7.2693    1.4319   -0.2911 O.2     1  UNL1       -0.4624
      9 C           2.6160   -0.0075    0.1909 C.ar    1  UNL1       -0.0100
     10 C           1.9224    1.1020    0.6624 C.ar    1  UNL1       -0.0529
     11 C           0.5173    1.1466    0.6359 C.ar    1  UNL1       -0.0528
     12 C          -0.2952    0.1093    0.1221 C.ar    1  UNL1       -0.0087
     13 C           0.4443   -1.0400   -0.3114 C.ar    1  UNL1       -0.0085
     14 C           1.8683   -1.0807   -0.2904 C.ar    1  UNL1       -0.0452
     15 C          -0.3763   -2.1210   -0.7386 C.ar    1  UNL1       -0.0024
     16 C           0.1250   -3.3275   -1.1801 C.ar    1  UNL1       -0.0160
     17 S          -1.1126   -4.4313   -1.6025 S.2     1  UNL1       -0.1038
     18 C          -2.3345   -3.3030   -1.1935 C.ar    1  UNL1       -0.0159
     19 C          -1.8222   -2.1048   -0.7430 C.ar    1  UNL1        0.0010
     20 C          -2.6007   -0.9974   -0.3510 C.ar    1  UNL1        0.0345
     21 C          -4.0209   -0.9802   -0.3490 C.ar    1  UNL1        0.1438
     22 O          -4.9028   -1.9874   -0.6677 O.2     1  UNL1       -0.4623
     23 C          -6.1690   -1.4945   -0.5177 C.ar    1  UNL1        0.0932
     24 C          -6.1493   -0.1768   -0.1097 C.ar    1  UNL1       -0.0154
     25 C          -4.7927    0.1057   -0.0123 C.ar    1  UNL1        0.0315
     26 C          -4.0956    1.2726    0.3250 C.ar    1  UNL1        0.0312
     27 C          -4.5924    2.4958    0.6356 C.ar    1  UNL1        0.1001
     28 O          -3.5208    3.3219    0.8171 O.2     1  UNL1       -0.4698
     29 C          -2.3850    2.5748    0.6132 C.ar    1  UNL1        0.1000
     30 C          -2.6826    1.2537    0.3364 C.ar    1  UNL1        0.0289
     31 C          -1.7891    0.1568    0.0540 C.ar    1  UNL1        0.0047
     32 H           7.0198    3.3361   -1.0691 H       1  UNL1        0.1030
     33 H           4.2995    2.8724   -0.9569 H       1  UNL1        0.0655
     34 H           7.4470   -1.1972    0.7618 H       1  UNL1        0.0731
     35 H           2.4611    1.9483    1.0851 H       1  UNL1        0.0624
     36 H           0.0804    2.0269    1.0862 H       1  UNL1        0.0624
     37 H           2.3922   -1.9589   -0.6567 H       1  UNL1        0.0630
     38 H           1.1502   -3.6505   -1.2856 H       1  UNL1        0.0700
     39 H          -3.3616   -3.6104   -1.3205 H       1  UNL1        0.0700
     40 H          -6.9627   -2.1947   -0.7402 H       1  UNL1        0.1030
     41 H          -7.0052    0.4548    0.0761 H       1  UNL1        0.0655
     42 H          -5.5692    2.9443    0.7423 H       1  UNL1        0.1036
     43 H          -1.4877    3.1672    0.6847 H       1  UNL1        0.1036
@<TRIPOS>BOND
     1     1     2   ar
     2     2     3   ar
     3     3     4   ar
     4     4     5   ar
     5     5     6   ar
     6     6     7   ar
     7     7     8   ar
     8     4     9    1
     9     9    10   ar
    10    10    11   ar
    11    11    12   ar
    12    12    13   ar
    13    13    14   ar
    14    13    15   ar
    15    15    16   ar
    16    16    17   ar
    17    17    18   ar
    18    18    19   ar
    19    19    20   ar
    20    20    21   ar
    21    21    22   ar
    22    22    23   ar
    23    23    24   ar
    24    24    25   ar
    25    25    26   ar
    26    26    27   ar
    27    27    28   ar
    28    28    29   ar
    29    29    30   ar
    30    30    31   ar
    31     8     1   ar
    32    14     9   ar
    33    19    15   ar
    34    31    20   ar
    35     7     3   ar
    36    31    12   ar
    37    25    21   ar
    38    30    26   ar
    39     1    32    1
    40     2    33    1
    41     6    34    1
    42    10    35    1
    43    11    36    1
    44    14    37    1
    45    16    38    1
    46    18    39    1
    47    23    40    1
    48    24    41    1
    49    27    42    1
    50    29    43    1
