@<TRIPOS>MOLECULE
*****
 42 48 0 0 0
SMALL
GASTEIGER

@<TRIPOS>ATOM
      1 C           6.5568    2.1804   -1.1009 C.ar    1  UNL1        0.0932
      2 C           5.1753    1.9866   -0.9783 C.ar    1  UNL1       -0.0150
      3 C           5.0200    0.6894   -0.4393 C.ar    1  UNL1        0.0349
      4 C           4.0645   -0.1974   -0.0446 C.ar    1  UNL1        0.0316
      5 S           4.9313   -1.6247    0.5164 S.2     1  UNL1       -0.0923
      6 C           6.4941   -0.9722    0.1994 C.ar    1  UNL1        0.0192
      7 C           6.3207    0.2601   -0.3028 C.ar    1  UNL1        0.1424
      8 O           7.3151    1.1072   -0.6824 O.2     1  UNL1       -0.4624
      9 C           2.5900   -0.1429   -0.0214 C.ar    1  UNL1        0.0081
     10 C           1.8907    0.9761   -0.4611 C.ar    1  UNL1        0.0365
     11 N           0.5343    1.1240   -0.4800 N.ar    1  UNL1       -0.2537
     12 C          -0.2578    0.1241   -0.0433 C.ar    1  UNL1        0.0793
     13 C           0.3775   -1.0636    0.4267 C.ar    1  UNL1        0.0107
     14 C           1.7888   -1.1886    0.4345 C.ar    1  UNL1       -0.0422
     15 C          -0.5457   -2.0409    0.8581 C.ar    1  UNL1        0.0092
     16 C          -0.2728   -3.2892    1.3643 C.ar    1  UNL1        0.0101
     17 N          -1.4816   -3.8872    1.6482 N.ar    1  UNL1       -0.3659
     18 C          -2.5173   -3.0357    1.3292 C.ar    1  UNL1        0.0100
     19 C          -1.9583   -1.8815    0.8361 C.ar    1  UNL1        0.0078
     20 C          -2.6266   -0.7261    0.3805 C.ar    1  UNL1       -0.0061
     21 C          -4.0289   -0.5354    0.3453 C.ar    1  UNL1       -0.0455
     22 C          -4.5610    0.6666   -0.1337 C.ar    1  UNL1       -0.0144
     23 C          -5.9415    0.8952   -0.1852 C.ar    1  UNL1       -0.0359
     24 C          -6.3984    2.1096   -0.6717 C.ar    1  UNL1        0.0281
     25 N          -5.5900    3.0978   -1.1041 N.ar    1  UNL1       -0.2626
     26 C          -4.2587    2.8570   -1.0460 C.ar    1  UNL1        0.0353
     27 C          -3.6840    1.6735   -0.5759 C.ar    1  UNL1        0.0009
     28 C          -2.2867    1.4689   -0.5348 C.ar    1  UNL1       -0.0428
     29 C          -1.7006    0.2779   -0.0620 C.ar    1  UNL1        0.0093
     30 H           7.1413    3.0163   -1.4633 H       1  UNL1        0.1030
     31 H           4.4258    2.7130   -1.2543 H       1  UNL1        0.0655
     32 H           7.4194   -1.4969    0.3869 H       1  UNL1        0.0731
     33 H           2.4029    1.8537   -0.8388 H       1  UNL1        0.0836
     34 H           2.2230   -2.1123    0.8020 H       1  UNL1        0.0631
     35 H           0.6522   -3.8167    1.5531 H       1  UNL1        0.0813
     36 H          -1.5925   -4.8162    2.0346 H       1  UNL1        0.1648
     37 H          -3.5420   -3.3425    1.4874 H       1  UNL1        0.0813
     38 H          -4.6901   -1.3248    0.6912 H       1  UNL1        0.0630
     39 H          -6.6530    0.1463    0.1455 H       1  UNL1        0.0639
     40 H          -7.4618    2.3245   -0.7273 H       1  UNL1        0.0830
     41 H          -3.6400    3.6767   -1.4030 H       1  UNL1        0.0836
     42 H          -1.6345    2.2701   -0.8853 H       1  UNL1        0.0631
@<TRIPOS>BOND
     1     1     2   ar
     2     2     3   ar
     3     3     4   ar
     4     4     5   ar
     5     5     6   ar
     6     6     7   ar
     7     7     8   ar
     8     4     9    1
     9     9    10   ar
    10    10    11   ar
    11    11    12   ar
    12    12    13   ar
    13    13    14   ar
    14    13    15   ar
    15    15    16   ar
    16    16    17   ar
    17    17    18   ar
    18    18    19   ar
    19    19    20   ar
    20    20    21   ar
    21    21    22   ar
    22    22    23   ar
    23    23    24   ar
    24    24    25   ar
    25    25    26   ar
    26    26    27   ar
    27    27    28   ar
    28    28    29   ar
    29     8     1   ar
    30    14     9   ar
    31    19    15   ar
    32    29    20   ar
    33     7     3   ar
    34    29    12   ar
    35    27    22   ar
    36     1    30    1
    37     2    31    1
    38     6    32    1
    39    10    33    1
    40    14    34    1
    41    16    35    1
    42    17    36    1
    43    18    37    1
    44    21    38    1
    45    23    39    1
    46    24    40    1
    47    26    41    1
    48    28    42    1
