@<TRIPOS>MOLECULE
*****
 41 47 0 0 0
SMALL
GASTEIGER

@<TRIPOS>ATOM
      1 C          -6.7176    0.6695    1.8928 C.ar    1  UNL1        0.0932
      2 C          -5.3370    0.6123    1.6663 C.ar    1  UNL1       -0.0150
      3 C          -5.1837   -0.0055    0.4044 C.ar    1  UNL1        0.0349
      4 C          -4.2301   -0.4059   -0.4819 C.ar    1  UNL1        0.0316
      5 S          -5.1000   -1.1124   -1.8413 S.2     1  UNL1       -0.0923
      6 C          -6.6609   -0.8400   -1.1652 C.ar    1  UNL1        0.0192
      7 C          -6.4851   -0.2449    0.0246 C.ar    1  UNL1        0.1424
      8 O          -7.4777    0.1355    0.8736 O.2     1  UNL1       -0.4624
      9 C          -2.7556   -0.3429   -0.4727 C.ar    1  UNL1        0.0081
     10 C          -1.9620   -0.8229   -1.5075 C.ar    1  UNL1        0.0365
     11 N          -0.6035   -0.7846   -1.5388 N.ar    1  UNL1       -0.2537
     12 C           0.0685   -0.2441   -0.4994 C.ar    1  UNL1        0.0794
     13 C          -0.6403    0.2706    0.5988 C.ar    1  UNL1        0.0016
     14 C           0.0442    0.8337    1.6831 C.ar    1  UNL1       -0.0519
     15 C           1.4399    0.8977    1.7005 C.ar    1  UNL1       -0.0513
     16 C           2.2249    0.4083    0.6476 C.ar    1  UNL1        0.0108
     17 C           3.6721    0.5074    0.7322 C.ar    1  UNL1        0.0794
     18 N           4.2518    1.0674    1.8184 N.ar    1  UNL1       -0.2543
     19 C           5.6028    1.1601    1.8977 C.ar    1  UNL1        0.0283
     20 C           6.4755    0.7139    0.9251 C.ar    1  UNL1       -0.0430
     21 C           5.9325    0.1331   -0.2063 C.ar    1  UNL1       -0.0504
     22 C           4.5284    0.0286   -0.3053 C.ar    1  UNL1        0.0117
     23 C           3.8080   -0.5296   -1.3766 C.ar    1  UNL1        0.0297
     24 C           4.3041   -1.0802   -2.5302 C.ar    1  UNL1        0.1000
     25 O           3.2724   -1.5088   -3.3145 O.2     1  UNL1       -0.4698
     26 C           2.1120   -1.2264   -2.6502 C.ar    1  UNL1        0.1001
     27 C           2.3913   -0.6217   -1.4494 C.ar    1  UNL1        0.0303
     28 C           1.4902   -0.1668   -0.4569 C.ar    1  UNL1        0.0208
     29 C          -2.0474    0.2126    0.5943 C.ar    1  UNL1       -0.0429
     30 H          -7.3007    1.0550    2.7193 H       1  UNL1        0.1030
     31 H          -4.5857    0.9793    2.3485 H       1  UNL1        0.0655
     32 H          -7.5870   -1.1155   -1.6482 H       1  UNL1        0.0731
     33 H          -2.3861   -1.2797   -2.3975 H       1  UNL1        0.0836
     34 H          -0.5013    1.2337    2.5359 H       1  UNL1        0.0624
     35 H           1.9193    1.3471    2.5713 H       1  UNL1        0.0624
     36 H           5.9747    1.6245    2.8074 H       1  UNL1        0.0830
     37 H           7.5472    0.8173    1.0483 H       1  UNL1        0.0633
     38 H           6.5823   -0.2311   -0.9953 H       1  UNL1        0.0625
     39 H           5.2910   -1.2431   -2.9389 H       1  UNL1        0.1036
     40 H           1.2063   -1.5166   -3.1646 H       1  UNL1        0.1036
     41 H          -2.5775    0.6148    1.4504 H       1  UNL1        0.0631
@<TRIPOS>BOND
     1     1     2   ar
     2     2     3   ar
     3     3     4   ar
     4     4     5   ar
     5     5     6   ar
     6     6     7   ar
     7     7     8   ar
     8     4     9    1
     9     9    10   ar
    10    10    11   ar
    11    11    12   ar
    12    12    13   ar
    13    13    14   ar
    14    14    15   ar
    15    15    16   ar
    16    16    17   ar
    17    17    18   ar
    18    18    19   ar
    19    19    20   ar
    20    20    21   ar
    21    21    22   ar
    22    22    23   ar
    23    23    24   ar
    24    24    25   ar
    25    25    26   ar
    26    26    27   ar
    27    27    28   ar
    28    13    29   ar
    29     8     1   ar
    30    29     9   ar
    31     7     3   ar
    32    28    12   ar
    33    28    16   ar
    34    22    17   ar
    35    27    23   ar
    36     1    30    1
    37     2    31    1
    38     6    32    1
    39    10    33    1
    40    14    34    1
    41    15    35    1
    42    19    36    1
    43    20    37    1
    44    21    38    1
    45    24    39    1
    46    26    40    1
    47    29    41    1
