@<TRIPOS>MOLECULE
*****
 39 45 0 0 0
SMALL
GASTEIGER

@<TRIPOS>ATOM
      1 C           6.4652   -1.8434    0.5853 C.ar    1  UNL1        0.0932
      2 C           5.0786   -1.6630    0.5073 C.ar    1  UNL1       -0.0150
      3 C           4.8905   -0.3003    0.1828 C.ar    1  UNL1        0.0349
      4 C           3.9124    0.6167   -0.0575 C.ar    1  UNL1        0.0316
      5 S           4.7430    2.1334   -0.3920 S.2     1  UNL1       -0.0923
      6 C           6.3226    1.4736   -0.1965 C.ar    1  UNL1        0.0192
      7 C           6.1805    0.1737    0.1048 C.ar    1  UNL1        0.1424
      8 O           7.1963   -0.7009    0.3361 O.2     1  UNL1       -0.4624
      9 C           2.4392    0.5333   -0.0759 C.ar    1  UNL1        0.0081
     10 C           1.7705   -0.6544    0.1854 C.ar    1  UNL1        0.0365
     11 N           0.4208   -0.8167    0.1887 N.ar    1  UNL1       -0.2536
     12 C          -0.3753    0.2427   -0.0802 C.ar    1  UNL1        0.0823
     13 C           0.2039    1.4919   -0.3583 C.ar    1  UNL1        0.0197
     14 C          -0.6316    2.5768   -0.6342 C.ar    1  UNL1        0.0376
     15 N          -1.9781    2.5289   -0.6576 N.ar    1  UNL1       -0.2505
     16 C          -2.5402    1.3298   -0.3909 C.ar    1  UNL1        0.1163
     17 C          -3.9596    1.2976   -0.4199 C.ar    1  UNL1        0.1613
     18 O          -4.8299    2.3318   -0.6848 O.2     1  UNL1       -0.4607
     19 C          -6.0986    1.8259   -0.5989 C.ar    1  UNL1        0.0933
     20 C          -6.0888    0.4813   -0.2833 C.ar    1  UNL1       -0.0154
     21 C          -4.7359    0.1847   -0.1789 C.ar    1  UNL1        0.0314
     22 C          -4.0471   -1.0098    0.1190 C.ar    1  UNL1        0.0109
     23 C          -4.5339   -2.2496    0.3973 C.ar    1  UNL1        0.0101
     24 N          -3.4093   -3.0211    0.6072 N.ar    1  UNL1       -0.3659
     25 C          -2.2649   -2.2539    0.4567 C.ar    1  UNL1        0.0101
     26 C          -2.6403   -0.9646    0.1446 C.ar    1  UNL1        0.0114
     27 C          -1.7897    0.1563   -0.0964 C.ar    1  UNL1        0.0391
     28 C           1.6077    1.6225   -0.3528 C.ar    1  UNL1       -0.0414
     29 H           7.0711   -2.7130    0.8049 H       1  UNL1        0.1030
     30 H           4.3476   -2.4403    0.6708 H       1  UNL1        0.0655
     31 H           7.2346    2.0419   -0.3064 H       1  UNL1        0.0731
     32 H           2.2995   -1.5721    0.4142 H       1  UNL1        0.0836
     33 H          -0.2211    3.5601   -0.8542 H       1  UNL1        0.0836
     34 H          -6.8870    2.5415   -0.7870 H       1  UNL1        0.1030
     35 H          -6.9476   -0.1600   -0.1550 H       1  UNL1        0.0655
     36 H          -5.5291   -2.6653    0.4691 H       1  UNL1        0.0813
     37 H          -3.4141   -4.0063    0.8381 H       1  UNL1        0.1648
     38 H          -1.2927   -2.7103    0.5887 H       1  UNL1        0.0813
     39 H           2.0306    2.6004   -0.5712 H       1  UNL1        0.0631
@<TRIPOS>BOND
     1     1     2   ar
     2     2     3   ar
     3     3     4   ar
     4     4     5   ar
     5     5     6   ar
     6     6     7   ar
     7     7     8   ar
     8     4     9    1
     9     9    10   ar
    10    10    11   ar
    11    11    12   ar
    12    12    13   ar
    13    13    14   ar
    14    14    15   ar
    15    15    16   ar
    16    16    17   ar
    17    17    18   ar
    18    18    19   ar
    19    19    20   ar
    20    20    21   ar
    21    21    22   ar
    22    22    23   ar
    23    23    24   ar
    24    24    25   ar
    25    25    26   ar
    26    26    27   ar
    27    13    28   ar
    28     8     1   ar
    29    28     9   ar
    30     7     3   ar
    31    27    12   ar
    32    27    16   ar
    33    21    17   ar
    34    26    22   ar
    35     1    29    1
    36     2    30    1
    37     6    31    1
    38    10    32    1
    39    14    33    1
    40    19    34    1
    41    20    35    1
    42    23    36    1
    43    24    37    1
    44    25    38    1
    45    28    39    1
