@<TRIPOS>MOLECULE
*****
 42 49 0 0 0
SMALL
GASTEIGER

@<TRIPOS>ATOM
      1 C           7.0872   -0.7657    1.3816 C.ar    1  UNL1       -0.0231
      2 C           5.7232   -0.6113    1.1070 C.ar    1  UNL1       -0.0459
      3 C           5.4599    0.2626    0.0074 C.ar    1  UNL1        0.0045
      4 C           4.3451    0.7238   -0.6325 C.ar    1  UNL1        0.0342
      5 S           4.9098    1.7764   -1.9031 S.2     1  UNL1       -0.0944
      6 C           6.5644    1.5551   -1.5278 C.ar    1  UNL1       -0.0094
      7 C           6.6982    0.7085   -0.4699 C.ar    1  UNL1        0.0269
      8 S           8.1909    0.1197    0.3512 S.2     1  UNL1       -0.0961
      9 C           2.9277    0.4709   -0.4052 C.ar    1  UNL1        0.0291
     10 C           2.3640   -0.3404    0.5667 C.ar    1  UNL1       -0.0224
     11 C           0.9470   -0.3423    0.4825 C.ar    1  UNL1        0.0553
     12 N          -0.0913   -0.9297    1.1477 N.ar    1  UNL1       -0.3531
     13 C          -1.2794   -0.5284    0.5773 C.ar    1  UNL1        0.0585
     14 C          -0.9990    0.3376   -0.4797 C.ar    1  UNL1        0.0224
     15 C           0.4379    0.4321   -0.5092 C.ar    1  UNL1        0.0458
     16 S           1.7047    1.2094   -1.3961 S.2     1  UNL1       -0.0855
     17 C          -2.0811    0.8857   -1.2256 C.ar    1  UNL1       -0.0070
     18 C          -1.8038    1.7641   -2.2981 C.ar    1  UNL1       -0.0533
     19 C          -2.8299    2.3227   -3.0537 C.ar    1  UNL1       -0.0611
     20 C          -4.1456    2.0145   -2.7516 C.ar    1  UNL1       -0.0611
     21 C          -4.4361    1.1469   -1.6933 C.ar    1  UNL1       -0.0534
     22 C          -3.4278    0.5504   -0.8919 C.ar    1  UNL1       -0.0094
     23 C          -3.7004   -0.3423    0.1988 C.ar    1  UNL1       -0.0060
     24 C          -5.0291   -0.7274    0.5952 C.ar    1  UNL1       -0.0512
     25 C          -5.3577   -1.5989    1.6562 C.ar    1  UNL1       -0.0329
     26 C          -4.2726   -2.1284    2.3791 C.ar    1  UNL1        0.1006
     27 N          -4.3664   -2.9711    3.4186 N.ar    1  UNL1       -0.1908
     28 S          -2.8147   -3.2883    3.9068 S.2     1  UNL1        0.1165
     29 N          -1.9562   -2.3715    2.8221 N.ar    1  UNL1       -0.1901
     30 C          -2.8593   -1.7694    2.0202 C.ar    1  UNL1        0.1095
     31 C          -2.5948   -0.8776    0.9302 C.ar    1  UNL1        0.0348
     32 H           7.5226   -1.3743    2.1628 H       1  UNL1        0.0694
     33 H           4.9810   -1.1258    1.6995 H       1  UNL1        0.0629
     34 H           7.3582    2.0393   -2.0798 H       1  UNL1        0.0705
     35 H           2.9094   -0.9078    1.3039 H       1  UNL1        0.0650
     36 H           0.0075   -1.5600    1.9355 H       1  UNL1        0.1659
     37 H          -0.7843    2.0269   -2.5619 H       1  UNL1        0.0624
     38 H          -2.5978    2.9959   -3.8745 H       1  UNL1        0.0618
     39 H          -4.9537    2.4464   -3.3366 H       1  UNL1        0.0618
     40 H          -5.4885    0.9495   -1.5126 H       1  UNL1        0.0624
     41 H          -5.8858   -0.3309    0.0511 H       1  UNL1        0.0624
     42 H          -6.3832   -1.8474    1.9017 H       1  UNL1        0.0640
@<TRIPOS>BOND
     1     1     2   ar
     2     2     3   ar
     3     3     4   ar
     4     4     5   ar
     5     5     6   ar
     6     6     7   ar
     7     7     8   ar
     8     4     9    1
     9     9    10   ar
    10    10    11   ar
    11    11    12   ar
    12    12    13   ar
    13    13    14   ar
    14    14    15   ar
    15    15    16   ar
    16    14    17   ar
    17    17    18   ar
    18    18    19   ar
    19    19    20   ar
    20    20    21   ar
    21    21    22   ar
    22    22    23   ar
    23    23    24   ar
    24    24    25   ar
    25    25    26   ar
    26    26    27   ar
    27    27    28   ar
    28    28    29   ar
    29    29    30   ar
    30    30    31   ar
    31     8     1   ar
    32    16     9   ar
    33    22    17   ar
    34    31    23   ar
    35     7     3   ar
    36    15    11   ar
    37    30    26   ar
    38    31    13   ar
    39     1    32    1
    40     2    33    1
    41     6    34    1
    42    10    35    1
    43    12    36    1
    44    18    37    1
    45    19    38    1
    46    20    39    1
    47    21    40    1
    48    24    41    1
    49    25    42    1
