@<TRIPOS>MOLECULE
*****
 47 54 0 0 0
SMALL
GASTEIGER

@<TRIPOS>ATOM
      1 SI         -0.3539   -0.3049   -1.5719 Si      1  UNL1        0.0000
      2 C          -1.6636   -0.5685   -0.2259 C.2     1  UNL1        0.0000
      3 C          -1.1427   -0.6534    1.0132 C.2     1  UNL1        0.0000
      4 C           0.3088   -0.5156    1.0195 C.ar    1  UNL1        0.0000
      5 C           0.9989   -0.3207   -0.2134 C.ar    1  UNL1        0.0000
      6 C           2.4424   -0.1712   -0.3291 C.ar    1  UNL1        0.0000
      7 C           3.1309    0.0244   -1.5749 C.ar    1  UNL1        0.0000
      8 N           2.5749    0.0994   -2.8050 N.ar    1  UNL1        0.0000
      9 S           3.8015    0.3324   -3.9099 S.2     1  UNL1        0.0000
     10 N           5.1204    0.3515   -2.8877 N.ar    1  UNL1        0.0000
     11 C           4.5687    0.1742   -1.6944 C.ar    1  UNL1        0.0000
     12 C           5.3633    0.1258   -0.5047 C.ar    1  UNL1        0.0000
     13 C           6.7688    0.2604   -0.5097 C.ar    1  UNL1        0.0000
     14 C           7.2519    0.1725    0.7729 C.ar    1  UNL1        0.0000
     15 S           6.0051   -0.0659    1.9163 S.2     1  UNL1        0.0000
     16 C           4.7410   -0.0615    0.7202 C.ar    1  UNL1        0.0000
     17 C           3.3279   -0.2081    0.8329 C.ar    1  UNL1        0.0000
     18 C           2.5958   -0.4030    2.0329 C.ar    1  UNL1        0.0000
     19 C           3.0489   -0.4947    3.3300 C.ar    1  UNL1        0.0000
     20 N           1.9623   -0.6845    4.1594 N.ar    1  UNL1        0.0000
     21 C           0.8050   -0.7182    3.4221 C.ar    1  UNL1        0.0000
     22 C           1.1642   -0.5476    2.1089 C.ar    1  UNL1        0.0000
     23 C          -3.0832   -0.6715   -0.5679 C.ar    1  UNL1        0.0000
     24 C          -3.5803   -1.9493   -0.8710 C.ar    1  UNL1        0.0000
     25 C          -4.9189   -2.1280   -1.2036 C.ar    1  UNL1        0.0000
     26 C          -5.7782   -1.0326   -1.2298 C.ar    1  UNL1        0.0000
     27 C          -5.3162    0.2551   -0.9175 C.ar    1  UNL1        0.0000
     28 C          -6.2003    1.3469   -0.9416 C.ar    1  UNL1        0.0000
     29 C          -5.7630    2.6331   -0.6285 C.ar    1  UNL1        0.0000
     30 C          -4.4348    2.8449   -0.2846 C.ar    1  UNL1        0.0000
     31 C          -3.5433    1.7703   -0.2570 C.ar    1  UNL1        0.0000
     32 C          -3.9546    0.4536   -0.5745 C.ar    1  UNL1        0.0000
     33 H          -0.2641   -1.4837   -2.4742 H       1  UNL1        0.0000
     34 H          -0.4928    1.0308   -2.2098 H       1  UNL1        0.0000
     35 H          -1.7166   -0.8046    1.9167 H       1  UNL1        0.0000
     36 H           7.3944    0.4111   -1.3816 H       1  UNL1        0.0000
     37 H           8.2814    0.2368    1.0980 H       1  UNL1        0.0000
     38 H           4.0290   -0.4477    3.7780 H       1  UNL1        0.0000
     39 H           2.0140   -0.7840    5.1652 H       1  UNL1        0.0000
     40 H          -0.1524   -0.8593    3.9047 H       1  UNL1        0.0000
     41 H          -2.9214   -2.8151   -0.8485 H       1  UNL1        0.0000
     42 H          -5.2932   -3.1202   -1.4407 H       1  UNL1        0.0000
     43 H          -6.8217   -1.1935   -1.4929 H       1  UNL1        0.0000
     44 H          -7.2458    1.2016   -1.2054 H       1  UNL1        0.0000
     45 H          -6.4605    3.4660   -0.6515 H       1  UNL1        0.0000
     46 H          -4.0869    3.8440   -0.0360 H       1  UNL1        0.0000
     47 H          -2.5115    1.9727    0.0223 H       1  UNL1        0.0000
@<TRIPOS>BOND
     1     1     2    1
     2     2     3    2
     3     3     4    1
     4     4     5   ar
     5     5     6   ar
     6     6     7   ar
     7     7     8   ar
     8     8     9   ar
     9     9    10   ar
    10    10    11   ar
    11    11    12   ar
    12    12    13   ar
    13    13    14   ar
    14    14    15   ar
    15    15    16   ar
    16    16    17   ar
    17    17    18   ar
    18    18    19   ar
    19    19    20   ar
    20    20    21   ar
    21    21    22   ar
    22     2    23    1
    23    23    24   ar
    24    24    25   ar
    25    25    26   ar
    26    26    27   ar
    27    27    28   ar
    28    28    29   ar
    29    29    30   ar
    30    30    31   ar
    31    31    32   ar
    32     5     1    1
    33    17     6   ar
    34    22    18   ar
    35    32    23   ar
    36    22     4   ar
    37    32    27   ar
    38    11     7   ar
    39    16    12   ar
    40     1    33    1
    41     1    34    1
    42     3    35    1
    43    13    36    1
    44    14    37    1
    45    19    38    1
    46    20    39    1
    47    21    40    1
    48    24    41    1
    49    25    42    1
    50    26    43    1
    51    28    44    1
    52    29    45    1
    53    30    46    1
    54    31    47    1
