@<TRIPOS>MOLECULE
*****
 46 53 0 0 0
SMALL
GASTEIGER

@<TRIPOS>ATOM
      1 SI         -0.7903   -4.4371   -0.3413 Si      1  UNL1        0.0000
      2 C           0.8159   -3.5595   -0.0208 C.2     1  UNL1        0.0000
      3 C           0.6439   -2.2236   -0.0143 C.ar    1  UNL1        0.0000
      4 C           1.6772   -1.2449    0.0101 C.ar    1  UNL1        0.0000
      5 C           3.0594   -1.3374    0.2684 C.ar    1  UNL1        0.0000
      6 C           3.5675   -0.0527    0.2101 C.ar    1  UNL1        0.0000
      7 N           2.5175    0.7920   -0.0753 N.ar    1  UNL1        0.0000
      8 C           1.3661    0.0719   -0.2810 C.ar    1  UNL1        0.0000
      9 C           0.0125    0.5636   -0.5333 C.ar    1  UNL1        0.0000
     10 C          -0.3489    1.8229   -1.0326 C.ar    1  UNL1        0.0000
     11 C           0.5280    2.7192   -1.6020 C.ar    1  UNL1        0.0000
     12 S          -0.2529    4.1509   -2.1272 S.2     1  UNL1        0.0000
     13 C          -1.7894    3.5576   -1.6559 C.ar    1  UNL1        0.0000
     14 C          -1.7200    2.2941   -1.1086 C.ar    1  UNL1        0.0000
     15 C          -2.8557    1.5707   -0.6368 C.ar    1  UNL1        0.0000
     16 C          -4.2122    2.0990   -0.6700 C.ar    1  UNL1        0.0000
     17 C          -5.3310    1.4433   -0.1346 C.ar    1  UNL1        0.0000
     18 C          -4.9653    0.2635    0.4972 C.ar    1  UNL1        0.0000
     19 C          -5.8905   -0.4725    1.1979 C.ar    1  UNL1        0.0000
     20 S          -5.1507   -1.7880    2.0070 S.2     1  UNL1        0.0000
     21 C          -3.5956   -1.3544    1.4207 C.ar    1  UNL1        0.0000
     22 C          -3.6326   -0.3020    0.5304 C.ar    1  UNL1        0.0000
     23 C          -2.4752    0.2591   -0.1154 C.ar    1  UNL1        0.0000
     24 C          -1.1109   -0.2806   -0.2326 C.ar    1  UNL1        0.0000
     25 C          -0.7664   -1.7530   -0.1789 C.ar    1  UNL1        0.0000
     26 C          -1.6149   -2.7635   -0.4743 C.2     1  UNL1        0.0000
     27 C           4.9100    0.3923    0.4273 C.ar    1  UNL1        0.0000
     28 C           5.4375    1.6733    0.3777 C.ar    1  UNL1        0.0000
     29 C           6.8205    1.5720    0.6691 C.ar    1  UNL1        0.0000
     30 C           7.0643    0.2384    0.8803 C.ar    1  UNL1        0.0000
     31 O           5.9236   -0.4792    0.7371 O.2     1  UNL1        0.0000
     32 H          -0.7957   -5.1730   -1.6284 H       1  UNL1        0.0000
     33 H          -1.2677   -5.2020    0.8358 H       1  UNL1        0.0000
     34 H           1.7509   -4.0931    0.0379 H       1  UNL1        0.0000
     35 H           3.6294   -2.2270    0.5025 H       1  UNL1        0.0000
     36 H           2.5852    1.7978   -0.0858 H       1  UNL1        0.0000
     37 H           1.5870    2.6286   -1.7850 H       1  UNL1        0.0000
     38 H          -2.6497    4.1874   -1.8271 H       1  UNL1        0.0000
     39 H          -4.3958    3.0720   -1.1228 H       1  UNL1        0.0000
     40 H          -6.3270    1.8648   -0.1590 H       1  UNL1        0.0000
     41 H          -6.9506   -0.2949    1.3165 H       1  UNL1        0.0000
     42 H          -2.7455   -1.9148    1.7803 H       1  UNL1        0.0000
     43 H          -2.6511   -2.6988   -0.7642 H       1  UNL1        0.0000
     44 H           4.8947    2.5807    0.1572 H       1  UNL1        0.0000
     45 H           7.5470    2.3705    0.7185 H       1  UNL1        0.0000
     46 H           7.9473   -0.3338    1.1279 H       1  UNL1        0.0000
@<TRIPOS>BOND
     1     1     2    1
     2     2     3    2
     3     3     4   ar
     4     4     5   ar
     5     5     6   ar
     6     6     7   ar
     7     7     8   ar
     8     8     9   ar
     9     9    10   ar
    10    10    11   ar
    11    11    12   ar
    12    12    13   ar
    13    13    14   ar
    14    14    15   ar
    15    15    16   ar
    16    16    17   ar
    17    17    18   ar
    18    18    19   ar
    19    19    20   ar
    20    20    21   ar
    21    21    22   ar
    22    22    23   ar
    23    23    24   ar
    24    24    25   ar
    25    25    26    2
    26     6    27    1
    27    27    28   ar
    28    28    29   ar
    29    29    30   ar
    30    30    31   ar
    31    26     1    1
    32    31    27   ar
    33    25     3   ar
    34     8     4   ar
    35    24     9   ar
    36    14    10   ar
    37    23    15   ar
    38    22    18   ar
    39     1    32    1
    40     1    33    1
    41     2    34    1
    42     5    35    1
    43     7    36    1
    44    11    37    1
    45    13    38    1
    46    16    39    1
    47    17    40    1
    48    19    41    1
    49    21    42    1
    50    26    43    1
    51    28    44    1
    52    29    45    1
    53    30    46    1
