@<TRIPOS>MOLECULE
*****
 38 44 0 0 0
SMALL
GASTEIGER

@<TRIPOS>ATOM
      1 C           6.2153   -2.7213    0.8835 C.ar    1  UNL1       -0.0231
      2 C           5.0073   -2.0541    0.6482 C.ar    1  UNL1       -0.0459
      3 C           5.1749   -0.7717    0.0402 C.ar    1  UNL1        0.0045
      4 C           4.3468    0.2317   -0.3754 C.ar    1  UNL1        0.0342
      5 S           5.3775    1.4810   -1.0220 S.2     1  UNL1       -0.0944
      6 C           6.8265    0.6251   -0.7140 C.ar    1  UNL1       -0.0094
      7 C           6.5500   -0.5766   -0.1367 C.ar    1  UNL1        0.0269
      8 S           7.6725   -1.8806    0.4005 S.2     1  UNL1       -0.0961
      9 C           2.8950    0.3605   -0.3445 C.ar    1  UNL1        0.0291
     10 C           1.9788   -0.5612    0.1423 C.ar    1  UNL1       -0.0224
     11 C           0.6466   -0.0889    0.0057 C.ar    1  UNL1        0.0553
     12 N          -0.6179   -0.5358    0.2931 N.ar    1  UNL1       -0.3532
     13 C          -1.5437    0.4105   -0.0898 C.ar    1  UNL1        0.0564
     14 C          -0.8312    1.4878   -0.6364 C.ar    1  UNL1        0.0146
     15 C          -1.5114    2.6169   -1.1200 C.ar    1  UNL1       -0.0509
     16 C          -2.9069    2.6599   -1.0526 C.ar    1  UNL1       -0.0533
     17 C          -3.6496    1.6072   -0.5156 C.ar    1  UNL1       -0.0153
     18 C          -5.0788    1.7257   -0.4813 C.ar    1  UNL1       -0.0534
     19 C          -5.9591    0.7501    0.0284 C.ar    1  UNL1       -0.0529
     20 C          -5.2782   -0.3647    0.5052 C.ar    1  UNL1       -0.0102
     21 C          -5.9534   -1.4318    1.0447 C.ar    1  UNL1       -0.0166
     22 S          -4.8701   -2.6581    1.5482 S.2     1  UNL1       -0.1039
     23 C          -3.4982   -1.7497    1.0391 C.ar    1  UNL1       -0.0160
     24 C          -3.8381   -0.5330    0.4934 C.ar    1  UNL1       -0.0012
     25 C          -2.9535    0.4455   -0.0179 C.ar    1  UNL1        0.0143
     26 C           0.5494    1.1360   -0.5590 C.ar    1  UNL1        0.0452
     27 S           2.0981    1.7829   -0.9574 S.2     1  UNL1       -0.0855
     28 H           6.3355   -3.6986    1.3313 H       1  UNL1        0.0694
     29 H           4.0660   -2.5090    0.9192 H       1  UNL1        0.0629
     30 H           7.8022    1.0213   -0.9597 H       1  UNL1        0.0705
     31 H           2.2235   -1.5188    0.5732 H       1  UNL1        0.0650
     32 H          -0.7851   -1.4333    0.7218 H       1  UNL1        0.1659
     33 H          -0.9597    3.4519   -1.5436 H       1  UNL1        0.0625
     34 H          -3.4070    3.5482   -1.4352 H       1  UNL1        0.0624
     35 H          -5.5346    2.6359   -0.8769 H       1  UNL1        0.0624
     36 H          -7.0332    0.8806    0.0349 H       1  UNL1        0.0624
     37 H          -7.0188   -1.5652    1.1735 H       1  UNL1        0.0699
     38 H          -2.5375   -2.2061    1.1915 H       1  UNL1        0.0700
@<TRIPOS>BOND
     1     1     2   ar
     2     2     3   ar
     3     3     4   ar
     4     4     5   ar
     5     5     6   ar
     6     6     7   ar
     7     7     8   ar
     8     4     9    1
     9     9    10   ar
    10    10    11   ar
    11    11    12   ar
    12    12    13   ar
    13    13    14   ar
    14    14    15   ar
    15    15    16   ar
    16    16    17   ar
    17    17    18   ar
    18    18    19   ar
    19    19    20   ar
    20    20    21   ar
    21    21    22   ar
    22    22    23   ar
    23    23    24   ar
    24    24    25   ar
    25    14    26   ar
    26    26    27   ar
    27     8     1   ar
    28    27     9   ar
    29     7     3   ar
    30    26    11   ar
    31    25    13   ar
    32    25    17   ar
    33    24    20   ar
    34     1    28    1
    35     2    29    1
    36     6    30    1
    37    10    31    1
    38    12    32    1
    39    15    33    1
    40    16    34    1
    41    18    35    1
    42    19    36    1
    43    21    37    1
    44    23    38    1
