@<TRIPOS>MOLECULE
*****
 41 47 0 0 0
SMALL
GASTEIGER

@<TRIPOS>ATOM
      1 C          -6.2556    2.0805    0.0794 C.ar    1  UNL1       -0.0231
      2 C          -4.9549    1.5636    0.0483 C.ar    1  UNL1       -0.0459
      3 C          -4.8991    0.2079    0.4656 C.ar    1  UNL1        0.0040
      4 C          -3.8988   -0.6970    0.6007 C.ar    1  UNL1        0.0282
      5 S          -4.5947   -2.1641    1.1867 S.2     1  UNL1       -0.0949
      6 C          -6.1927   -1.5148    1.2151 C.ar    1  UNL1       -0.0094
      7 C          -6.1851   -0.2152    0.7967 C.ar    1  UNL1        0.0269
      8 S          -7.5193    0.9798    0.6171 S.2     1  UNL1       -0.0961
      9 C          -2.4724   -0.6072    0.3518 C.ar    1  UNL1       -0.0005
     10 C          -1.5188   -0.6363    1.3926 C.ar    1  UNL1       -0.0289
     11 C          -0.1407   -0.5162    1.1017 C.ar    1  UNL1        0.0487
     12 N           0.9537   -0.5150    1.9366 N.ar    1  UNL1       -0.3541
     13 C           2.1266   -0.3680    1.2209 C.ar    1  UNL1        0.0481
     14 C           3.4477   -0.3168    1.6867 C.ar    1  UNL1       -0.0300
     15 C           4.4848   -0.1604    0.7530 C.ar    1  UNL1       -0.0159
     16 C           5.8240   -0.1036    1.1718 C.ar    1  UNL1       -0.0540
     17 C           6.8585    0.0516    0.2479 C.ar    1  UNL1       -0.0612
     18 C           6.5670    0.1520   -1.1079 C.ar    1  UNL1       -0.0612
     19 C           5.2411    0.0973   -1.5398 C.ar    1  UNL1       -0.0540
     20 C           4.1885   -0.0585   -0.6227 C.ar    1  UNL1       -0.0172
     21 C           2.8499   -0.1137   -1.0599 C.ar    1  UNL1       -0.0443
     22 C           1.7963   -0.2703   -0.1348 C.ar    1  UNL1        0.0086
     23 C           0.3908   -0.3658   -0.1687 C.ar    1  UNL1        0.0157
     24 C          -0.5410   -0.3358   -1.2612 C.ar    1  UNL1       -0.0005
     25 C          -0.2426   -0.2038   -2.5856 C.ar    1  UNL1       -0.0159
     26 S          -1.6978   -0.2380   -3.5048 S.2     1  UNL1       -0.1038
     27 C          -2.6708   -0.4339   -2.0944 C.ar    1  UNL1       -0.0160
     28 C          -1.9223   -0.4589   -0.9342 C.ar    1  UNL1       -0.0019
     29 H          -6.5596    3.0825   -0.1915 H       1  UNL1        0.0694
     30 H          -4.1010    2.1529   -0.2647 H       1  UNL1        0.0629
     31 H          -7.0483   -2.0956    1.5307 H       1  UNL1        0.0705
     32 H          -1.8479   -0.7434    2.4240 H       1  UNL1        0.0645
     33 H           0.9082   -0.6097    2.9406 H       1  UNL1        0.1659
     34 H           3.6611   -0.3970    2.7486 H       1  UNL1        0.0644
     35 H           6.0734   -0.1805    2.2278 H       1  UNL1        0.0624
     36 H           7.8896    0.0935    0.5884 H       1  UNL1        0.0618
     37 H           7.3695    0.2728   -1.8308 H       1  UNL1        0.0618
     38 H           5.0343    0.1776   -2.6048 H       1  UNL1        0.0624
     39 H           2.6369   -0.0342   -2.1196 H       1  UNL1        0.0630
     40 H           0.7030   -0.0943   -3.0905 H       1  UNL1        0.0700
     41 H          -3.7418   -0.5203   -2.2164 H       1  UNL1        0.0700
@<TRIPOS>BOND
     1     1     2   ar
     2     2     3   ar
     3     3     4   ar
     4     4     5   ar
     5     5     6   ar
     6     6     7   ar
     7     7     8   ar
     8     4     9    1
     9     9    10   ar
    10    10    11   ar
    11    11    12   ar
    12    12    13   ar
    13    13    14   ar
    14    14    15   ar
    15    15    16   ar
    16    16    17   ar
    17    17    18   ar
    18    18    19   ar
    19    19    20   ar
    20    20    21   ar
    21    21    22   ar
    22    22    23   ar
    23    23    24   ar
    24    24    25   ar
    25    25    26   ar
    26    26    27   ar
    27    27    28   ar
    28     8     1   ar
    29    28     9   ar
    30     7     3   ar
    31    23    11   ar
    32    28    24   ar
    33    22    13   ar
    34    20    15   ar
    35     1    29    1
    36     2    30    1
    37     6    31    1
    38    10    32    1
    39    12    33    1
    40    14    34    1
    41    16    35    1
    42    17    36    1
    43    18    37    1
    44    19    38    1
    45    21    39    1
    46    25    40    1
    47    27    41    1
