@<TRIPOS>MOLECULE
*****
 41 47 0 0 0
SMALL
GASTEIGER

@<TRIPOS>ATOM
      1 C           6.1199    1.3485    1.0411 C.ar    1  UNL1       -0.0231
      2 C           4.7469    1.1772    0.8281 C.ar    1  UNL1       -0.0458
      3 C           4.4278   -0.0864    0.2546 C.ar    1  UNL1        0.0054
      4 C           3.2796   -0.7090   -0.1200 C.ar    1  UNL1        0.0437
      5 S           3.7134   -2.2851   -0.6969 S.2     1  UNL1       -0.0935
      6 C           5.3948   -2.0399   -0.4346 C.ar    1  UNL1       -0.0094
      7 C           5.6169   -0.8002    0.0896 C.ar    1  UNL1        0.0270
      8 S           7.1520    0.0049    0.5800 S.2     1  UNL1       -0.0961
      9 C           1.9152   -0.2646   -0.0974 C.ar    1  UNL1        0.0548
     10 C           1.3765    0.9986   -0.0308 C.ar    1  UNL1       -0.0275
     11 C          -0.0516    0.8884   -0.0182 C.ar    1  UNL1        0.0086
     12 C          -0.3608   -0.4708   -0.1170 C.ar    1  UNL1        0.0559
     13 N           0.8502   -1.1293   -0.1392 N.ar    1  UNL1       -0.3532
     14 C          -1.6932   -0.9331   -0.1517 C.ar    1  UNL1        0.0148
     15 C          -2.1248   -2.2813   -0.2900 C.ar    1  UNL1       -0.0012
     16 C          -1.3390   -3.3919   -0.5049 C.ar    1  UNL1       -0.0160
     17 S          -2.2480   -4.8515   -0.6086 S.2     1  UNL1       -0.1039
     18 C          -3.7271   -4.0175   -0.4094 C.ar    1  UNL1       -0.0166
     19 C          -3.5178   -2.6680   -0.2658 C.ar    1  UNL1       -0.0102
     20 C          -4.5845   -1.7976   -0.1186 C.ar    1  UNL1       -0.0529
     21 C          -4.1501   -0.4587   -0.0138 C.ar    1  UNL1       -0.0528
     22 C          -2.7771    0.0180   -0.0302 C.ar    1  UNL1       -0.0076
     23 C          -2.4630    1.4144    0.0698 C.ar    1  UNL1       -0.0095
     24 C          -3.4295    2.4525    0.1711 C.ar    1  UNL1       -0.0534
     25 C          -3.0850    3.8065    0.2610 C.ar    1  UNL1       -0.0611
     26 C          -1.7533    4.1845    0.2532 C.ar    1  UNL1       -0.0611
     27 C          -0.7684    3.2078    0.1568 C.ar    1  UNL1       -0.0534
     28 C          -1.1069    1.8366    0.0659 C.ar    1  UNL1       -0.0081
     29 H           6.6041    2.2189    1.4628 H       1  UNL1        0.0694
     30 H           4.0289    1.9425    1.0919 H       1  UNL1        0.0629
     31 H           6.1358   -2.7934   -0.6635 H       1  UNL1        0.0705
     32 H           1.9401    1.9198    0.0057 H       1  UNL1        0.0645
     33 H           0.9737   -2.1267   -0.1531 H       1  UNL1        0.1659
     34 H          -0.2773   -3.4941   -0.6311 H       1  UNL1        0.0700
     35 H          -4.6615   -4.5621   -0.4185 H       1  UNL1        0.0699
     36 H          -5.6300   -2.0754   -0.0986 H       1  UNL1        0.0624
     37 H          -4.9595    0.2624    0.0911 H       1  UNL1        0.0624
     38 H          -4.4925    2.2321    0.1789 H       1  UNL1        0.0624
     39 H          -3.8650    4.5599    0.3353 H       1  UNL1        0.0618
     40 H          -1.4794    5.2335    0.3219 H       1  UNL1        0.0618
     41 H           0.2695    3.5295    0.1537 H       1  UNL1        0.0624
@<TRIPOS>BOND
     1     1     2   ar
     2     2     3   ar
     3     3     4   ar
     4     4     5   ar
     5     5     6   ar
     6     6     7   ar
     7     7     8   ar
     8     4     9    1
     9     9    10   ar
    10    10    11   ar
    11    11    12   ar
    12    12    13   ar
    13    12    14   ar
    14    14    15   ar
    15    15    16   ar
    16    16    17   ar
    17    17    18   ar
    18    18    19   ar
    19    19    20   ar
    20    20    21   ar
    21    21    22   ar
    22    22    23   ar
    23    23    24   ar
    24    24    25   ar
    25    25    26   ar
    26    26    27   ar
    27    27    28   ar
    28     8     1   ar
    29    13     9   ar
    30    22    14   ar
    31    28    23   ar
    32     7     3   ar
    33    28    11   ar
    34    19    15   ar
    35     1    29    1
    36     2    30    1
    37     6    31    1
    38    10    32    1
    39    13    33    1
    40    16    34    1
    41    18    35    1
    42    20    36    1
    43    21    37    1
    44    24    38    1
    45    25    39    1
    46    26    40    1
    47    27    41    1
