@<TRIPOS>MOLECULE
*****
 40 46 0 0 0
SMALL
GASTEIGER

@<TRIPOS>ATOM
      1 C           6.7420    0.6309    0.2603 C.ar    1  UNL1       -0.0231
      2 C           5.3437    0.6153    0.1923 C.ar    1  UNL1       -0.0458
      3 C           4.7877   -0.6806    0.4031 C.ar    1  UNL1        0.0069
      4 C           3.5340   -1.2062    0.4364 C.ar    1  UNL1        0.0627
      5 S           3.6941   -2.9029    0.7574 S.2     1  UNL1       -0.0919
      6 C           5.4086   -2.8418    0.8331 C.ar    1  UNL1       -0.0093
      7 C           5.8466   -1.5680    0.6204 C.ar    1  UNL1        0.0270
      8 S           7.5220   -0.9062    0.5834 S.2     1  UNL1       -0.0961
      9 C           2.2327   -0.6172    0.2618 C.ar    1  UNL1        0.1435
     10 C           1.8754    0.7008    0.0007 C.ar    1  UNL1       -0.0069
     11 C           0.4559    0.7685   -0.0839 C.ar    1  UNL1        0.0306
     12 C           0.0395   -0.5261    0.1337 C.ar    1  UNL1        0.1601
     13 O           1.0760   -1.3628    0.3405 O.2     1  UNL1       -0.4522
     14 C          -1.4501   -0.8811    0.1235 C.ar    1  UNL1        0.0931
     15 N          -2.0239   -2.0971    0.3185 N.ar    1  UNL1       -0.3500
     16 C          -3.3895   -1.9664    0.2251 C.ar    1  UNL1        0.0661
     17 C          -4.4135   -2.9056    0.3463 C.ar    1  UNL1       -0.0348
     18 C          -5.7072   -2.4181    0.1908 C.ar    1  UNL1       -0.0416
     19 C          -5.8981   -1.0683   -0.0677 C.ar    1  UNL1        0.0284
     20 N          -4.9229   -0.1441   -0.1886 N.ar    1  UNL1       -0.2528
     21 C          -3.6578   -0.6175   -0.0371 C.ar    1  UNL1        0.0968
     22 C          -2.4125    0.0820   -0.1029 C.ar    1  UNL1        0.0370
     23 C          -1.9538    1.4179   -0.3259 C.ar    1  UNL1       -0.0059
     24 C          -2.8911    2.4406   -0.5620 C.ar    1  UNL1       -0.0533
     25 C          -2.4713    3.7545   -0.7829 C.ar    1  UNL1       -0.0611
     26 C          -1.1144    4.0751   -0.7731 C.ar    1  UNL1       -0.0611
     27 C          -0.1558    3.0864   -0.5422 C.ar    1  UNL1       -0.0533
     28 C          -0.5471    1.7531   -0.3163 C.ar    1  UNL1       -0.0064
     29 H           7.3848    1.4917    0.1342 H       1  UNL1        0.0694
     30 H           4.7824    1.5185   -0.0028 H       1  UNL1        0.0629
     31 H           6.0141   -3.7169    1.0252 H       1  UNL1        0.0705
     32 H           2.5528    1.5310   -0.1180 H       1  UNL1        0.0662
     33 H          -1.5220   -2.9552    0.5022 H       1  UNL1        0.1661
     34 H          -4.2184   -3.9522    0.5492 H       1  UNL1        0.0639
     35 H          -6.5604   -3.0837    0.2702 H       1  UNL1        0.0633
     36 H          -6.9050   -0.6762   -0.1911 H       1  UNL1        0.0830
     37 H          -3.9575    2.2248   -0.5763 H       1  UNL1        0.0624
     38 H          -3.2110    4.5306   -0.9635 H       1  UNL1        0.0618
     39 H          -0.8020    5.1019   -0.9466 H       1  UNL1        0.0618
     40 H           0.8930    3.3706   -0.5414 H       1  UNL1        0.0624
@<TRIPOS>BOND
     1     1     2   ar
     2     2     3   ar
     3     3     4   ar
     4     4     5   ar
     5     5     6   ar
     6     6     7   ar
     7     7     8   ar
     8     4     9    1
     9     9    10   ar
    10    10    11   ar
    11    11    12   ar
    12    12    13   ar
    13    12    14   ar
    14    14    15   ar
    15    15    16   ar
    16    16    17   ar
    17    17    18   ar
    18    18    19   ar
    19    19    20   ar
    20    20    21   ar
    21    21    22   ar
    22    22    23   ar
    23    23    24   ar
    24    24    25   ar
    25    25    26   ar
    26    26    27   ar
    27    27    28   ar
    28     8     1   ar
    29    13     9   ar
    30    22    14   ar
    31    28    23   ar
    32     7     3   ar
    33    28    11   ar
    34    21    16   ar
    35     1    29    1
    36     2    30    1
    37     6    31    1
    38    10    32    1
    39    15    33    1
    40    17    34    1
    41    18    35    1
    42    19    36    1
    43    24    37    1
    44    25    38    1
    45    26    39    1
    46    27    40    1
