@<TRIPOS>MOLECULE
*****
 41 48 0 0 0
SMALL
GASTEIGER

@<TRIPOS>ATOM
      1 C          -6.3983    1.4666    1.0504 C.ar    1  UNL1       -0.0231
      2 C          -5.0478    1.2560    0.7480 C.ar    1  UNL1       -0.0459
      3 C          -4.8287    0.0462    0.0359 C.ar    1  UNL1        0.0040
      4 C          -3.7288   -0.5777   -0.4568 C.ar    1  UNL1        0.0297
      5 S          -4.2564   -2.0508   -1.1950 S.2     1  UNL1       -0.0949
      6 C          -5.9141   -1.7704   -0.8187 C.ar    1  UNL1       -0.0094
      7 C          -6.0555   -0.5912   -0.1462 C.ar    1  UNL1        0.0269
      8 S          -7.5200    0.2239    0.5118 S.2     1  UNL1       -0.0961
      9 C          -2.3181   -0.2229   -0.4538 C.ar    1  UNL1        0.0181
     10 C          -1.3223   -1.0495    0.0780 C.ar    1  UNL1       -0.0430
     11 C           0.0652   -0.6953    0.0845 C.ar    1  UNL1       -0.0053
     12 C           1.0682   -1.5288    0.6227 C.ar    1  UNL1        0.0078
     13 C           0.8707   -2.7636    1.1987 C.ar    1  UNL1        0.0100
     14 N           2.0981   -3.2367    1.5897 N.ar    1  UNL1       -0.3659
     15 C           3.0740   -2.3207    1.2710 C.ar    1  UNL1        0.0100
     16 C           2.4723   -1.2406    0.6654 C.ar    1  UNL1        0.0089
     17 C           3.0717   -0.0678    0.1708 C.ar    1  UNL1        0.0091
     18 C           4.4484    0.2646    0.1888 C.ar    1  UNL1        0.0459
     19 S           5.8411   -0.5731    0.7812 S.2     1  UNL1       -0.0944
     20 C           6.9143    0.6629    0.3174 C.ar    1  UNL1       -0.0217
     21 C           6.2545    1.7071   -0.2798 C.ar    1  UNL1       -0.0287
     22 C           4.8481    1.4880   -0.3571 C.ar    1  UNL1        0.0786
     23 N           3.9837    2.3733   -0.9034 N.ar    1  UNL1       -0.2538
     24 C           2.6808    2.0104   -0.8972 C.ar    1  UNL1        0.0367
     25 C           2.1089    0.8333   -0.3959 C.ar    1  UNL1        0.0118
     26 C           0.6428    0.5273   -0.4376 C.ar    1  UNL1        0.0202
     27 C          -0.3919    1.3878   -0.9929 C.ar    1  UNL1        0.1088
     28 N          -0.2001    2.5944   -1.5573 N.ar    1  UNL1       -0.1901
     29 S          -1.6621    3.1767   -2.0487 S.2     1  UNL1        0.1165
     30 N          -2.6479    1.9475   -1.5673 N.ar    1  UNL1       -0.1901
     31 C          -1.8712    1.0075   -0.9981 C.ar    1  UNL1        0.1087
     32 H          -6.8179    2.3126    1.5775 H       1  UNL1        0.0694
     33 H          -4.2744    1.9600    1.0299 H       1  UNL1        0.0629
     34 H          -6.6976   -2.4618   -1.0964 H       1  UNL1        0.0705
     35 H          -1.6282   -2.0007    0.5120 H       1  UNL1        0.0631
     36 H          -0.0137   -3.3607    1.3731 H       1  UNL1        0.0813
     37 H           2.2640   -4.1262    2.0439 H       1  UNL1        0.1648
     38 H           4.0974   -2.5561    1.5191 H       1  UNL1        0.0813
     39 H           7.9755    0.5689    0.5023 H       1  UNL1        0.0694
     40 H           6.7448    2.5973   -0.6510 H       1  UNL1        0.0644
     41 H           2.0705    2.7820   -1.3556 H       1  UNL1        0.0836
@<TRIPOS>BOND
     1     1     2   ar
     2     2     3   ar
     3     3     4   ar
     4     4     5   ar
     5     5     6   ar
     6     6     7   ar
     7     7     8   ar
     8     4     9    1
     9     9    10   ar
    10    10    11   ar
    11    11    12   ar
    12    12    13   ar
    13    13    14   ar
    14    14    15   ar
    15    15    16   ar
    16    16    17   ar
    17    17    18   ar
    18    18    19   ar
    19    19    20   ar
    20    20    21   ar
    21    21    22   ar
    22    22    23   ar
    23    23    24   ar
    24    24    25   ar
    25    25    26   ar
    26    26    27   ar
    27    27    28   ar
    28    28    29   ar
    29    29    30   ar
    30    30    31   ar
    31     8     1   ar
    32    31     9   ar
    33     7     3   ar
    34    26    11   ar
    35    31    27   ar
    36    16    12   ar
    37    25    17   ar
    38    22    18   ar
    39     1    32    1
    40     2    33    1
    41     6    34    1
    42    10    35    1
    43    13    36    1
    44    14    37    1
    45    15    38    1
    46    20    39    1
    47    21    40    1
    48    24    41    1
