@<TRIPOS>MOLECULE
*****
 43 50 0 0 0
SMALL
GASTEIGER

@<TRIPOS>ATOM
      1 C           6.0251   -1.6036    1.2807 C.ar    1  UNL1       -0.0231
      2 C           4.7065   -1.3434    0.8887 C.ar    1  UNL1       -0.0459
      3 C           4.5732   -0.0954    0.2253 C.ar    1  UNL1        0.0040
      4 C           3.5300    0.5758   -0.3216 C.ar    1  UNL1        0.0282
      5 S           4.1345    2.0698   -0.9400 S.2     1  UNL1       -0.0949
      6 C           5.7553    1.7328   -0.4554 C.ar    1  UNL1       -0.0094
      7 C           5.8228    0.5190    0.1661 C.ar    1  UNL1        0.0269
      8 S           7.2138   -0.3666    0.8879 S.2     1  UNL1       -0.0961
      9 C           2.1238    0.2476   -0.4407 C.ar    1  UNL1       -0.0019
     10 C           1.0977    0.9457    0.2473 C.ar    1  UNL1       -0.0445
     11 C          -0.3254    0.6622    0.1994 C.ar    1  UNL1       -0.0054
     12 C          -1.2943    1.4295    0.9356 C.ar    1  UNL1       -0.0093
     13 C          -0.9685    2.5313    1.7693 C.ar    1  UNL1       -0.0534
     14 C          -1.9337    3.2596    2.4747 C.ar    1  UNL1       -0.0611
     15 C          -3.2719    2.9167    2.3766 C.ar    1  UNL1       -0.0611
     16 C          -3.6468    1.8459    1.5726 C.ar    1  UNL1       -0.0533
     17 C          -2.6804    1.1040    0.8559 C.ar    1  UNL1       -0.0054
     18 C          -3.1066    0.0210    0.0475 C.ar    1  UNL1        0.0428
     19 C          -2.1630   -0.7121   -0.6602 C.ar    1  UNL1        0.1456
     20 O          -2.7398   -1.7170   -1.3863 O.2     1  UNL1       -0.4536
     21 C          -4.0725   -1.6312   -1.1454 C.ar    1  UNL1        0.1433
     22 C          -5.1718   -2.3819   -1.6020 C.ar    1  UNL1       -0.0117
     23 C          -6.3210   -1.8654   -1.0408 C.ar    1  UNL1       -0.0201
     24 S          -6.0496   -0.5149    0.0022 S.2     1  UNL1       -0.0928
     25 C          -4.3399   -0.6116   -0.2971 C.ar    1  UNL1        0.0656
     26 C          -0.7903   -0.4310   -0.6139 C.ar    1  UNL1        0.0339
     27 C           0.2227   -1.1363   -1.3107 C.ar    1  UNL1        0.0010
     28 C           0.0218   -2.2096   -2.1504 C.ar    1  UNL1       -0.0159
     29 S           1.4857   -2.7966   -2.8282 S.2     1  UNL1       -0.1038
     30 C           2.4148   -1.6148   -2.0079 C.ar    1  UNL1       -0.0160
     31 C           1.6289   -0.8021   -1.2221 C.ar    1  UNL1       -0.0019
     32 H           6.3842   -2.4828    1.7985 H       1  UNL1        0.0694
     33 H           3.8949   -2.0351    1.0816 H       1  UNL1        0.0629
     34 H           6.5695    2.4201   -0.6387 H       1  UNL1        0.0705
     35 H           1.4448    1.7676    0.8730 H       1  UNL1        0.0630
     36 H           0.0594    2.8595    1.8938 H       1  UNL1        0.0624
     37 H          -1.6307    4.0960    3.0998 H       1  UNL1        0.0618
     38 H          -4.0242    3.4798    2.9225 H       1  UNL1        0.0618
     39 H          -4.7034    1.6016    1.5150 H       1  UNL1        0.0624
     40 H          -5.1301   -3.2235   -2.2793 H       1  UNL1        0.0660
     41 H          -7.3352   -2.2127   -1.1867 H       1  UNL1        0.0695
     42 H          -0.8961   -2.7053   -2.4290 H       1  UNL1        0.0700
     43 H           3.4856   -1.5922   -2.1576 H       1  UNL1        0.0700
@<TRIPOS>BOND
     1     1     2   ar
     2     2     3   ar
     3     3     4   ar
     4     4     5   ar
     5     5     6   ar
     6     6     7   ar
     7     7     8   ar
     8     4     9    1
     9     9    10   ar
    10    10    11   ar
    11    11    12   ar
    12    12    13   ar
    13    13    14   ar
    14    14    15   ar
    15    15    16   ar
    16    16    17   ar
    17    17    18   ar
    18    18    19   ar
    19    19    20   ar
    20    20    21   ar
    21    21    22   ar
    22    22    23   ar
    23    23    24   ar
    24    24    25   ar
    25    19    26   ar
    26    26    27   ar
    27    27    28   ar
    28    28    29   ar
    29    29    30   ar
    30    30    31   ar
    31     8     1   ar
    32    31     9   ar
    33     7     3   ar
    34    26    11   ar
    35    31    27   ar
    36    17    12   ar
    37    25    18   ar
    38    25    21   ar
    39     1    32    1
    40     2    33    1
    41     6    34    1
    42    10    35    1
    43    13    36    1
    44    14    37    1
    45    15    38    1
    46    16    39    1
    47    22    40    1
    48    23    41    1
    49    28    42    1
    50    30    43    1
