@<TRIPOS>MOLECULE
*****
 38 44 0 0 0
SMALL
GASTEIGER

@<TRIPOS>ATOM
      1 C           5.5029   -0.1554    1.4385 C.ar    1  UNL1       -0.0231
      2 C           4.1382   -0.2007    1.1303 C.ar    1  UNL1       -0.0459
      3 C           3.8558    0.3039   -0.1666 C.ar    1  UNL1        0.0040
      4 C           2.7201    0.4660   -0.8895 C.ar    1  UNL1        0.0282
      5 S           3.1599    1.1844   -2.3974 S.2     1  UNL1       -0.0949
      6 C           4.8391    1.2256   -2.0068 C.ar    1  UNL1       -0.0094
      7 C           5.0490    0.7144   -0.7585 C.ar    1  UNL1        0.0269
      8 S           6.5610    0.5024    0.1957 S.2     1  UNL1       -0.0961
      9 C           1.3355    0.1579   -0.6000 C.ar    1  UNL1       -0.0010
     10 C           0.3110    1.1206   -0.5054 C.ar    1  UNL1       -0.0444
     11 C          -1.0662    0.7901   -0.1922 C.ar    1  UNL1       -0.0048
     12 C          -2.1060    1.7324   -0.0887 C.ar    1  UNL1        0.0282
     13 C          -2.0207    3.0972   -0.2608 C.ar    1  UNL1        0.1000
     14 O          -3.2482    3.6858   -0.0790 O.2     1  UNL1       -0.4698
     15 C          -4.1409    2.6875    0.2140 C.ar    1  UNL1        0.1000
     16 C          -3.4557    1.5130    0.2084 C.ar    1  UNL1        0.0287
     17 C          -3.9020    0.1822    0.4489 C.ar    1  UNL1        0.0005
     18 C          -5.2248   -0.1781    0.7568 C.ar    1  UNL1       -0.0463
     19 C          -5.2996   -1.5408    0.9263 C.ar    1  UNL1       -0.0231
     20 S          -3.7869   -2.3136    0.7089 S.2     1  UNL1       -0.0960
     21 C          -2.9467   -0.8303    0.3701 C.ar    1  UNL1        0.0283
     22 C          -1.5714   -0.5543    0.0611 C.ar    1  UNL1        0.0063
     23 C          -0.5125   -1.4790   -0.0513 C.ar    1  UNL1        0.0088
     24 C          -0.5423   -2.8472    0.0940 C.ar    1  UNL1        0.0100
     25 N           0.7290   -3.3323   -0.1250 N.ar    1  UNL1       -0.3659
     26 C           1.5867   -2.2987   -0.4090 C.ar    1  UNL1        0.0100
     27 C           0.8556   -1.1351   -0.3621 C.ar    1  UNL1        0.0083
     28 H           5.9689   -0.4803    2.3589 H       1  UNL1        0.0694
     29 H           3.3962   -0.5829    1.8213 H       1  UNL1        0.0629
     30 H           5.5828    1.6153   -2.6879 H       1  UNL1        0.0705
     31 H           0.5758    2.1645   -0.6687 H       1  UNL1        0.0630
     32 H          -1.2225    3.7855   -0.5007 H       1  UNL1        0.1036
     33 H          -5.1610    2.9987    0.3846 H       1  UNL1        0.1036
     34 H          -6.0741    0.4858    0.8530 H       1  UNL1        0.0629
     35 H          -6.1733   -2.1300    1.1693 H       1  UNL1        0.0694
     36 H          -1.3297   -3.5486    0.3230 H       1  UNL1        0.0813
     37 H           0.9881   -4.3100   -0.0913 H       1  UNL1        0.1648
     38 H           2.6289   -2.4958   -0.6223 H       1  UNL1        0.0813
@<TRIPOS>BOND
     1     1     2   ar
     2     2     3   ar
     3     3     4   ar
     4     4     5   ar
     5     5     6   ar
     6     6     7   ar
     7     7     8   ar
     8     4     9    1
     9     9    10   ar
    10    10    11   ar
    11    11    12   ar
    12    12    13   ar
    13    13    14   ar
    14    14    15   ar
    15    15    16   ar
    16    16    17   ar
    17    17    18   ar
    18    18    19   ar
    19    19    20   ar
    20    20    21   ar
    21    21    22   ar
    22    22    23   ar
    23    23    24   ar
    24    24    25   ar
    25    25    26   ar
    26    26    27   ar
    27     8     1   ar
    28    27     9   ar
    29     7     3   ar
    30    22    11   ar
    31    27    23   ar
    32    16    12   ar
    33    21    17   ar
    34     1    28    1
    35     2    29    1
    36     6    30    1
    37    10    31    1
    38    13    32    1
    39    15    33    1
    40    18    34    1
    41    19    35    1
    42    24    36    1
    43    25    37    1
    44    26    38    1
