@<TRIPOS>MOLECULE
*****
 39 46 0 0 0
SMALL
GASTEIGER

@<TRIPOS>ATOM
      1 C           4.5555    0.3708   -3.5626 C.ar    1  UNL1       -0.0231
      2 C           3.5917    0.1361   -2.5746 C.ar    1  UNL1       -0.0458
      3 C           3.5993   -1.2081   -2.1039 C.ar    1  UNL1        0.0054
      4 C           2.8896   -1.9049   -1.1781 C.ar    1  UNL1        0.0437
      5 S           3.5367   -3.5081   -1.1274 S.2     1  UNL1       -0.0935
      6 C           4.7030   -3.1938   -2.3527 C.ar    1  UNL1       -0.0094
      7 C           4.6105   -1.8995   -2.7743 C.ar    1  UNL1        0.0270
      8 S           5.5634   -0.9970   -4.0079 S.2     1  UNL1       -0.0961
      9 C           1.7918   -1.5077   -0.3447 C.ar    1  UNL1        0.0548
     10 C           1.4059   -1.9698    0.9053 C.ar    1  UNL1       -0.0275
     11 C           0.2707   -1.2309    1.2407 C.ar    1  UNL1        0.0092
     12 C          -0.5454   -1.2688    2.4033 C.ar    1  UNL1       -0.0011
     13 C          -0.3216   -2.1053    3.4570 C.ar    1  UNL1       -0.0160
     14 S          -1.5304   -1.8290    4.6400 S.2     1  UNL1       -0.1038
     15 C          -2.2896   -0.6052    3.6799 C.ar    1  UNL1       -0.0160
     16 C          -1.6636   -0.3796    2.4696 C.ar    1  UNL1       -0.0013
     17 C          -2.0587    0.5599    1.4794 C.ar    1  UNL1        0.0088
     18 C          -3.1647    1.4622    1.5071 C.ar    1  UNL1        0.0299
     19 S          -4.3971    1.7460    2.7045 S.2     1  UNL1       -0.0960
     20 C          -5.1797    2.9593    1.7937 C.ar    1  UNL1       -0.0231
     21 C          -4.5581    3.1867    0.5910 C.ar    1  UNL1       -0.0448
     22 C          -3.4379    2.3372    0.4594 C.ar    1  UNL1        0.0180
     23 C          -2.5895    2.3505   -0.7004 C.ar    1  UNL1        0.1087
     24 N          -2.8034    3.1640   -1.7250 N.ar    1  UNL1       -0.1901
     25 S          -1.5586    2.7759   -2.7710 S.2     1  UNL1        0.1165
     26 N          -0.7801    1.5870   -1.8868 N.ar    1  UNL1       -0.1901
     27 C          -1.4696    1.4382   -0.7303 C.ar    1  UNL1        0.1102
     28 C          -1.1800    0.5399    0.3279 C.ar    1  UNL1        0.0359
     29 C          -0.0711   -0.3370    0.2519 C.ar    1  UNL1        0.0575
     30 N           0.8830   -0.5396   -0.7262 N.ar    1  UNL1       -0.3532
     31 H           4.7450    1.3065   -4.0712 H       1  UNL1        0.0694
     32 H           2.9367    0.9218   -2.2201 H       1  UNL1        0.0629
     33 H           5.3956   -3.9470   -2.7019 H       1  UNL1        0.0705
     34 H           1.9048   -2.7370    1.4820 H       1  UNL1        0.0645
     35 H           0.4522   -2.8442    3.6104 H       1  UNL1        0.0700
     36 H          -3.1616   -0.1480    4.1149 H       1  UNL1        0.0700
     37 H          -6.0610    3.4489    2.1858 H       1  UNL1        0.0694
     38 H          -4.8971    3.9171   -0.1345 H       1  UNL1        0.0630
     39 H           0.8834   -0.0473   -1.6102 H       1  UNL1        0.1659
@<TRIPOS>BOND
     1     1     2   ar
     2     2     3   ar
     3     3     4   ar
     4     4     5   ar
     5     5     6   ar
     6     6     7   ar
     7     7     8   ar
     8     4     9    1
     9     9    10   ar
    10    10    11   ar
    11    11    12   ar
    12    12    13   ar
    13    13    14   ar
    14    14    15   ar
    15    15    16   ar
    16    16    17   ar
    17    17    18   ar
    18    18    19   ar
    19    19    20   ar
    20    20    21   ar
    21    21    22   ar
    22    22    23   ar
    23    23    24   ar
    24    24    25   ar
    25    25    26   ar
    26    26    27   ar
    27    27    28   ar
    28    28    29   ar
    29    29    30   ar
    30     8     1   ar
    31    30     9   ar
    32     7     3   ar
    33    29    11   ar
    34    16    12   ar
    35    28    17   ar
    36    22    18   ar
    37    27    23   ar
    38     1    31    1
    39     2    32    1
    40     6    33    1
    41    10    34    1
    42    13    35    1
    43    15    36    1
    44    20    37    1
    45    21    38    1
    46    30    39    1
