@<TRIPOS>MOLECULE
*****
 37 43 0 0 0
SMALL
GASTEIGER

@<TRIPOS>ATOM
      1 C           6.6118    1.3754   -0.1309 C.ar    1  UNL1       -0.0231
      2 C           5.2154    1.2776   -0.1500 C.ar    1  UNL1       -0.0458
      3 C           4.7434   -0.0408    0.1154 C.ar    1  UNL1        0.0054
      4 C           3.5212   -0.6314    0.2056 C.ar    1  UNL1        0.0437
      5 S           3.7908   -2.3082    0.5679 S.2     1  UNL1       -0.0935
      6 C           5.5002   -2.1489    0.5828 C.ar    1  UNL1       -0.0094
      7 C           5.8577   -0.8595    0.3202 C.ar    1  UNL1        0.0270
      8 S           7.4901   -0.1048    0.2070 S.2     1  UNL1       -0.0961
      9 C           2.1914   -0.1011    0.0556 C.ar    1  UNL1        0.0549
     10 C           1.7537    1.1845   -0.2291 C.ar    1  UNL1       -0.0259
     11 C           0.3586    1.1128   -0.2535 C.ar    1  UNL1        0.0305
     12 C          -0.5926    2.1414   -0.4983 C.ar    1  UNL1        0.1098
     13 N          -0.2313    3.3893   -0.7523 N.ar    1  UNL1       -0.1901
     14 S          -1.7089    4.1504   -0.9554 S.2     1  UNL1        0.1165
     15 N          -2.7503    2.8685   -0.7134 N.ar    1  UNL1       -0.1900
     16 C          -2.0046    1.7703   -0.4597 C.ar    1  UNL1        0.1118
     17 C          -2.4666    0.4287   -0.1887 C.ar    1  UNL1        0.0565
     18 C          -1.4458   -0.5241    0.0421 C.ar    1  UNL1        0.0990
     19 N          -1.6561   -1.8290    0.3125 N.ar    1  UNL1       -0.2521
     20 C          -2.9458   -2.2183    0.3584 C.ar    1  UNL1        0.0375
     21 C          -4.0381   -1.3749    0.1488 C.ar    1  UNL1        0.0192
     22 C          -5.3574   -1.8513    0.2123 C.ar    1  UNL1       -0.0497
     23 C          -6.4156   -0.9810   -0.0020 C.ar    1  UNL1       -0.0430
     24 C          -6.1146    0.3363   -0.2725 C.ar    1  UNL1        0.0283
     25 N          -4.8544    0.8184   -0.3388 N.ar    1  UNL1       -0.2542
     26 C          -3.8069   -0.0127   -0.1332 C.ar    1  UNL1        0.0837
     27 C          -0.0908   -0.1583    0.0030 C.ar    1  UNL1        0.0755
     28 N           1.0602   -0.8927    0.1912 N.ar    1  UNL1       -0.3520
     29 H           7.1979    2.2681   -0.3031 H       1  UNL1        0.0694
     30 H           4.5929    2.1389   -0.3498 H       1  UNL1        0.0629
     31 H           6.1617   -2.9817    0.7777 H       1  UNL1        0.0705
     32 H           2.3600    2.0624   -0.3979 H       1  UNL1        0.0646
     33 H          -3.0867   -3.2743    0.5780 H       1  UNL1        0.0836
     34 H          -5.5636   -2.8969    0.4279 H       1  UNL1        0.0625
     35 H          -7.4443   -1.3198    0.0406 H       1  UNL1        0.0633
     36 H          -6.8970    1.0689   -0.4498 H       1  UNL1        0.0830
     37 H           1.0642   -1.8824    0.4009 H       1  UNL1        0.1660
@<TRIPOS>BOND
     1     1     2   ar
     2     2     3   ar
     3     3     4   ar
     4     4     5   ar
     5     5     6   ar
     6     6     7   ar
     7     7     8   ar
     8     4     9    1
     9     9    10   ar
    10    10    11   ar
    11    11    12   ar
    12    12    13   ar
    13    13    14   ar
    14    14    15   ar
    15    15    16   ar
    16    16    17   ar
    17    17    18   ar
    18    18    19   ar
    19    19    20   ar
    20    20    21   ar
    21    21    22   ar
    22    22    23   ar
    23    23    24   ar
    24    24    25   ar
    25    25    26   ar
    26    18    27   ar
    27    27    28   ar
    28     8     1   ar
    29    28     9   ar
    30     7     3   ar
    31    27    11   ar
    32    16    12   ar
    33    26    17   ar
    34    26    21   ar
    35     1    29    1
    36     2    30    1
    37     6    31    1
    38    10    32    1
    39    20    33    1
    40    22    34    1
    41    23    35    1
    42    24    36    1
    43    28    37    1
