@<TRIPOS>MOLECULE
*****
 40 47 0 0 0
SMALL
GASTEIGER

@<TRIPOS>ATOM
      1 C           6.6258    3.0385    0.4074 C.ar    1  UNL1       -0.0231
      2 C           5.3640    2.4381    0.3341 C.ar    1  UNL1       -0.0458
      3 C           5.4045    1.0289    0.5377 C.ar    1  UNL1        0.0054
      4 C           4.4666    0.0405    0.5596 C.ar    1  UNL1        0.0458
      5 S           5.3223   -1.4389    0.8752 S.2     1  UNL1       -0.0934
      6 C           6.8593   -0.6781    0.9604 C.ar    1  UNL1       -0.0094
      7 C           6.7335    0.6632    0.7556 C.ar    1  UNL1        0.0270
      8 S           7.9781    1.9655    0.7279 S.2     1  UNL1       -0.0961
      9 C           3.0061    0.0707    0.3725 C.ar    1  UNL1        0.0788
     10 C           2.1892   -1.0518    0.4284 C.ar    1  UNL1       -0.0253
     11 C           0.8002   -0.8981    0.2329 C.ar    1  UNL1        0.0149
     12 C          -0.1214   -1.9797    0.2698 C.ar    1  UNL1        0.1083
     13 N           0.1984   -3.2727    0.4920 N.ar    1  UNL1       -0.1901
     14 S          -1.2180   -4.1452    0.4376 S.2     1  UNL1        0.1165
     15 N          -2.3018   -2.9197    0.1293 N.ar    1  UNL1       -0.1901
     16 C          -1.5593   -1.8294    0.0687 C.ar    1  UNL1        0.1093
     17 C          -2.0912   -0.5060   -0.1843 C.ar    1  UNL1        0.0264
     18 C          -1.1672    0.5386   -0.2157 C.ar    1  UNL1        0.0318
     19 S          -1.9983    2.0285   -0.5296 S.2     1  UNL1       -0.0875
     20 C          -3.5455    1.2844   -0.6185 C.ar    1  UNL1        0.0213
     21 C          -4.7781    1.9685   -0.8691 C.ar    1  UNL1       -0.0467
     22 C          -6.0092    1.3039   -0.9296 C.ar    1  UNL1       -0.0499
     23 C          -5.8527   -0.0503   -0.7193 C.ar    1  UNL1        0.0205
     24 C          -6.8914   -0.9478   -0.7229 C.ar    1  UNL1        0.0994
     25 O          -6.4175   -2.2060   -0.4864 O.2     1  UNL1       -0.4698
     26 C          -5.0570   -2.1096   -0.3296 C.ar    1  UNL1        0.1000
     27 C          -4.6862   -0.8043   -0.4671 C.ar    1  UNL1        0.0287
     28 C          -3.4250   -0.0897   -0.4099 C.ar    1  UNL1        0.0098
     29 C           0.2474    0.3689   -0.0148 C.ar    1  UNL1        0.0168
     30 C           1.1574    1.4300   -0.0503 C.ar    1  UNL1        0.0371
     31 N           2.4955    1.3039    0.1349 N.ar    1  UNL1       -0.2538
     32 H           6.8474    4.0901    0.2869 H       1  UNL1        0.0694
     33 H           4.4633    3.0084    0.1410 H       1  UNL1        0.0629
     34 H           7.7717   -1.2258    1.1517 H       1  UNL1        0.0705
     35 H           2.5929   -2.0412    0.6182 H       1  UNL1        0.0646
     36 H          -4.7605    3.0479   -1.0189 H       1  UNL1        0.0629
     37 H          -6.9456    1.8111   -1.1182 H       1  UNL1        0.0625
     38 H          -7.9603   -0.8752   -0.8669 H       1  UNL1        0.1035
     39 H          -4.5799   -3.0554   -0.1367 H       1  UNL1        0.1036
     40 H           0.8423    2.4540   -0.2340 H       1  UNL1        0.0836
@<TRIPOS>BOND
     1     1     2   ar
     2     2     3   ar
     3     3     4   ar
     4     4     5   ar
     5     5     6   ar
     6     6     7   ar
     7     7     8   ar
     8     4     9    1
     9     9    10   ar
    10    10    11   ar
    11    11    12   ar
    12    12    13   ar
    13    13    14   ar
    14    14    15   ar
    15    15    16   ar
    16    16    17   ar
    17    17    18   ar
    18    18    19   ar
    19    19    20   ar
    20    20    21   ar
    21    21    22   ar
    22    22    23   ar
    23    23    24   ar
    24    24    25   ar
    25    25    26   ar
    26    26    27   ar
    27    27    28   ar
    28    18    29   ar
    29    29    30   ar
    30    30    31   ar
    31     8     1   ar
    32    31     9   ar
    33     7     3   ar
    34    29    11   ar
    35    16    12   ar
    36    28    17   ar
    37    28    20   ar
    38    27    23   ar
    39     1    32    1
    40     2    33    1
    41     6    34    1
    42    10    35    1
    43    21    36    1
    44    22    37    1
    45    24    38    1
    46    26    39    1
    47    30    40    1
