@<TRIPOS>MOLECULE
*****
 46 53 0 0 0
SMALL
GASTEIGER

@<TRIPOS>ATOM
      1 SI         -1.2399    0.3348    4.1172 Si      1  UNL1        0.0000
      2 C           0.3155   -0.0036    3.1609 C.2     1  UNL1        0.0000
      3 C           0.0796    0.0159    1.8347 C.ar    1  UNL1        0.0000
      4 C           1.0670    0.0254    0.8101 C.ar    1  UNL1        0.0000
      5 C           2.4661   -0.1511    0.8398 C.ar    1  UNL1        0.0000
      6 C           2.9293    0.0065   -0.4560 C.ar    1  UNL1        0.0000
      7 N           1.8290    0.2769   -1.2459 N.ar    1  UNL1        0.0000
      8 C           0.6860    0.3025   -0.4879 C.ar    1  UNL1        0.0000
      9 C          -0.6960    0.4987   -0.9470 C.ar    1  UNL1        0.0000
     10 C          -0.9837    0.8491   -2.2674 C.ar    1  UNL1        0.0000
     11 C          -2.3060    0.9433   -2.7049 C.ar    1  UNL1        0.0000
     12 C          -3.3803    0.5925   -1.8830 C.ar    1  UNL1        0.0000
     13 C          -4.7081    0.6385   -2.4584 C.ar    1  UNL1        0.0000
     14 C          -5.8954    0.2260   -1.8198 C.ar    1  UNL1        0.0000
     15 C          -5.5921   -0.2850   -0.5744 C.ar    1  UNL1        0.0000
     16 C          -6.4769   -0.8961    0.2722 C.ar    1  UNL1        0.0000
     17 O          -5.8010   -1.3837    1.3525 O.2     1  UNL1        0.0000
     18 C          -4.4810   -1.0693    1.1825 C.ar    1  UNL1        0.0000
     19 C          -4.3042   -0.3231    0.0421 C.ar    1  UNL1        0.0000
     20 C          -3.0920    0.1793   -0.5268 C.ar    1  UNL1        0.0000
     21 C          -1.7517    0.2759   -0.0156 C.ar    1  UNL1        0.0000
     22 C          -1.3479    0.2132    1.4331 C.ar    1  UNL1        0.0000
     23 C          -2.1390    0.5155    2.4861 C.2     1  UNL1        0.0000
     24 C           4.2573   -0.0741   -0.9842 C.ar    1  UNL1        0.0000
     25 S           4.6562    0.1486   -2.6644 S.2     1  UNL1        0.0000
     26 C           6.3587   -0.1058   -2.4147 C.ar    1  UNL1        0.0000
     27 C           6.5460   -0.3423   -1.1000 C.ar    1  UNL1        0.0000
     28 C           7.5815   -0.6190   -0.1948 C.ar    1  UNL1        0.0000
     29 C           6.9486   -0.7409    1.0483 C.ar    1  UNL1        0.0000
     30 O           5.5783   -0.5622    1.0084 O.2     1  UNL1        0.0000
     31 C           5.4105   -0.3255   -0.3247 C.ar    1  UNL1        0.0000
     32 H          -1.1839    1.6082    4.8747 H       1  UNL1        0.0000
     33 H          -1.7097   -0.8441    4.8841 H       1  UNL1        0.0000
     34 H           1.2750   -0.0762    3.6471 H       1  UNL1        0.0000
     35 H           3.0744   -0.3678    1.7080 H       1  UNL1        0.0000
     36 H           1.8749    0.4182   -2.2443 H       1  UNL1        0.0000
     37 H          -0.1908    1.0683   -2.9759 H       1  UNL1        0.0000
     38 H          -2.4803    1.2472   -3.7362 H       1  UNL1        0.0000
     39 H          -4.8122    1.0005   -3.4842 H       1  UNL1        0.0000
     40 H          -6.8690    0.2490   -2.2869 H       1  UNL1        0.0000
     41 H          -7.5374   -1.1028    0.2523 H       1  UNL1        0.0000
     42 H          -3.8262   -1.4693    1.9422 H       1  UNL1        0.0000
     43 H          -3.1657    0.8413    2.4771 H       1  UNL1        0.0000
     44 H           7.0636   -0.0619   -3.2325 H       1  UNL1        0.0000
     45 H           8.6405   -0.7218   -0.3820 H       1  UNL1        0.0000
     46 H           7.3323   -0.9497    2.0385 H       1  UNL1        0.0000
@<TRIPOS>BOND
     1     1     2    1
     2     2     3    2
     3     3     4   ar
     4     4     5   ar
     5     5     6   ar
     6     6     7   ar
     7     7     8   ar
     8     8     9   ar
     9     9    10   ar
    10    10    11   ar
    11    11    12   ar
    12    12    13   ar
    13    13    14   ar
    14    14    15   ar
    15    15    16   ar
    16    16    17   ar
    17    17    18   ar
    18    18    19   ar
    19    19    20   ar
    20    20    21   ar
    21    21    22   ar
    22    22    23    2
    23     6    24    1
    24    24    25   ar
    25    25    26   ar
    26    26    27   ar
    27    27    28   ar
    28    28    29   ar
    29    29    30   ar
    30    30    31   ar
    31    23     1    1
    32    31    24   ar
    33    22     3   ar
    34    31    27   ar
    35     8     4   ar
    36    21     9   ar
    37    20    12   ar
    38    19    15   ar
    39     1    32    1
    40     1    33    1
    41     2    34    1
    42     5    35    1
    43     7    36    1
    44    10    37    1
    45    11    38    1
    46    13    39    1
    47    14    40    1
    48    16    41    1
    49    18    42    1
    50    23    43    1
    51    26    44    1
    52    28    45    1
    53    29    46    1
