@<TRIPOS>MOLECULE
*****
 37 42 0 0 0
SMALL
GASTEIGER

@<TRIPOS>ATOM
      1 C           5.1593    2.1474   -1.6220 C.ar    1  UNL1       -0.0231
      2 C           4.0386    1.4936   -1.0952 C.ar    1  UNL1       -0.0458
      3 C           4.3715    0.4894   -0.1359 C.ar    1  UNL1        0.0054
      4 C           3.6789   -0.3942    0.6363 C.ar    1  UNL1        0.0437
      5 S           4.8490   -1.2905    1.5563 S.2     1  UNL1       -0.0935
      6 C           6.1898   -0.4619    0.8827 C.ar    1  UNL1       -0.0094
      7 C           5.7660    0.4705   -0.0164 C.ar    1  UNL1        0.0270
      8 S           6.7190    1.6239   -1.0207 S.2     1  UNL1       -0.0961
      9 C           2.2703   -0.6602    0.7810 C.ar    1  UNL1        0.0548
     10 C           1.6164   -1.5761    1.5862 C.ar    1  UNL1       -0.0281
     11 C           0.2170   -1.4546    1.3706 C.ar    1  UNL1        0.0009
     12 C          -0.9053   -2.1091    1.8982 C.ar    1  UNL1       -0.0520
     13 C          -2.1869   -1.7413    1.4618 C.ar    1  UNL1       -0.0527
     14 C          -2.4042   -0.7271    0.5012 C.ar    1  UNL1       -0.0067
     15 C          -1.2639   -0.0689   -0.0284 C.ar    1  UNL1        0.0067
     16 C          -1.3993    0.9498   -0.9872 C.ar    1  UNL1       -0.0515
     17 C          -2.6635    1.3277   -1.4316 C.ar    1  UNL1       -0.0533
     18 C          -3.8144    0.7049   -0.9358 C.ar    1  UNL1       -0.0144
     19 C          -5.0766    1.1004   -1.3965 C.ar    1  UNL1       -0.0359
     20 C          -6.2021    0.4733   -0.8947 C.ar    1  UNL1        0.0281
     21 N          -6.1580   -0.5075    0.0221 N.ar    1  UNL1       -0.2626
     22 C          -4.9254   -0.8752    0.4548 C.ar    1  UNL1        0.0358
     23 C          -3.7022   -0.3234    0.0302 C.ar    1  UNL1        0.0080
     24 C           0.0272   -0.4532    0.4240 C.ar    1  UNL1        0.0547
     25 N           1.2860    0.0044    0.0899 N.ar    1  UNL1       -0.3532
     26 H           5.1577    2.9391   -2.3592 H       1  UNL1        0.0694
     27 H           3.0434    1.7616   -1.4173 H       1  UNL1        0.0629
     28 H           7.2109   -0.6818    1.1622 H       1  UNL1        0.0705
     29 H           2.0878   -2.2717    2.2687 H       1  UNL1        0.0645
     30 H          -0.7874   -2.8951    2.6390 H       1  UNL1        0.0624
     31 H          -3.0220   -2.2800    1.9025 H       1  UNL1        0.0624
     32 H          -0.5356    1.4609   -1.4000 H       1  UNL1        0.0624
     33 H          -2.7410    2.1192   -2.1746 H       1  UNL1        0.0624
     34 H          -5.1902    1.8859   -2.1364 H       1  UNL1        0.0639
     35 H          -7.1966    0.7541   -1.2290 H       1  UNL1        0.0830
     36 H          -4.9626   -1.6706    1.1929 H       1  UNL1        0.0836
     37 H           1.4488    0.7360   -0.5799 H       1  UNL1        0.1659
@<TRIPOS>BOND
     1     1     2   ar
     2     2     3   ar
     3     3     4   ar
     4     4     5   ar
     5     5     6   ar
     6     6     7   ar
     7     7     8   ar
     8     4     9    1
     9     9    10   ar
    10    10    11   ar
    11    11    12   ar
    12    12    13   ar
    13    13    14   ar
    14    14    15   ar
    15    15    16   ar
    16    16    17   ar
    17    17    18   ar
    18    18    19   ar
    19    19    20   ar
    20    20    21   ar
    21    21    22   ar
    22    22    23   ar
    23    15    24   ar
    24    24    25   ar
    25     8     1   ar
    26    25     9   ar
    27     7     3   ar
    28    24    11   ar
    29    23    14   ar
    30    23    18   ar
    31     1    26    1
    32     2    27    1
    33     6    28    1
    34    10    29    1
    35    12    30    1
    36    13    31    1
    37    16    32    1
    38    17    33    1
    39    19    34    1
    40    20    35    1
    41    22    36    1
    42    25    37    1
