@<TRIPOS>MOLECULE
*****
 34 39 0 0 0
SMALL
GASTEIGER

@<TRIPOS>ATOM
      1 C          -4.8859    2.1877   -1.2526 C.ar    1  UNL1       -0.0231
      2 C          -3.7988    1.4256   -0.8089 C.ar    1  UNL1       -0.0458
      3 C          -4.1962    0.2142   -0.1775 C.ar    1  UNL1        0.0069
      4 C          -3.5344   -0.8226    0.3978 C.ar    1  UNL1        0.0627
      5 S          -4.7237   -1.9470    0.9552 S.2     1  UNL1       -0.0919
      6 C          -6.0455   -0.9935    0.4012 C.ar    1  UNL1       -0.0093
      7 C          -5.5900    0.1483   -0.1910 C.ar    1  UNL1        0.0270
      8 S          -6.4817    1.5160   -0.9506 S.2     1  UNL1       -0.0961
      9 C          -2.1223   -1.0342    0.5598 C.ar    1  UNL1        0.1435
     10 C          -1.4473   -2.0952    1.1485 C.ar    1  UNL1       -0.0061
     11 C          -0.0575   -1.8279    1.0545 C.ar    1  UNL1        0.0395
     12 C           1.1200   -2.4622    1.4334 C.ar    1  UNL1        0.0391
     13 N           2.3212   -1.8820    1.1664 N.ar    1  UNL1       -0.2519
     14 C           2.4290   -0.6808    0.5304 C.ar    1  UNL1        0.1033
     15 C           1.2756    0.0031    0.1259 C.ar    1  UNL1        0.0634
     16 C           1.3630    1.2265   -0.5226 C.ar    1  UNL1        0.0411
     17 N           2.5392    1.8131   -0.7940 N.ar    1  UNL1       -0.2526
     18 C           3.6538    1.1642   -0.4096 C.ar    1  UNL1        0.0913
     19 C           4.8764    1.7569   -0.6826 C.ar    1  UNL1       -0.0327
     20 C           6.0723    1.1484   -0.3167 C.ar    1  UNL1       -0.0415
     21 C           6.0025   -0.0661    0.3277 C.ar    1  UNL1        0.0285
     22 N           4.8400   -0.6832    0.6158 N.ar    1  UNL1       -0.2513
     23 C           3.6692   -0.0858    0.2567 C.ar    1  UNL1        0.1151
     24 C           0.0492   -0.6103    0.4098 C.ar    1  UNL1        0.1478
     25 O          -1.1889   -0.1298    0.1107 O.2     1  UNL1       -0.4535
     26 H          -4.8418    3.1422   -1.7595 H       1  UNL1        0.0694
     27 H          -2.7736    1.7480   -0.9448 H       1  UNL1        0.0629
     28 H          -7.0756   -1.2976    0.5272 H       1  UNL1        0.0705
     29 H          -1.9045   -2.9669    1.5967 H       1  UNL1        0.0662
     30 H           1.1523   -3.4184    1.9438 H       1  UNL1        0.0837
     31 H           0.4809    1.7728   -0.8444 H       1  UNL1        0.0837
     32 H           4.8966    2.7168   -1.1931 H       1  UNL1        0.0640
     33 H           7.0274    1.6138   -0.5313 H       1  UNL1        0.0633
     34 H           6.8989   -0.5941    0.6402 H       1  UNL1        0.0830
@<TRIPOS>BOND
     1     1     2   ar
     2     2     3   ar
     3     3     4   ar
     4     4     5   ar
     5     5     6   ar
     6     6     7   ar
     7     7     8   ar
     8     4     9    1
     9     9    10   ar
    10    10    11   ar
    11    11    12   ar
    12    12    13   ar
    13    13    14   ar
    14    14    15   ar
    15    15    16   ar
    16    16    17   ar
    17    17    18   ar
    18    18    19   ar
    19    19    20   ar
    20    20    21   ar
    21    21    22   ar
    22    22    23   ar
    23    15    24   ar
    24    24    25   ar
    25     8     1   ar
    26    25     9   ar
    27     7     3   ar
    28    24    11   ar
    29    23    14   ar
    30    23    18   ar
    31     1    26    1
    32     2    27    1
    33     6    28    1
    34    10    29    1
    35    12    30    1
    36    16    31    1
    37    19    32    1
    38    20    33    1
    39    21    34    1
