@<TRIPOS>MOLECULE
*****
 40 47 0 0 0
SMALL
GASTEIGER

@<TRIPOS>ATOM
      1 C           6.0973    1.1998    1.6998 C.ar    1  UNL1       -0.0231
      2 C           4.7836    0.9243    1.3018 C.ar    1  UNL1       -0.0459
      3 C           4.6276   -0.4029    0.8212 C.ar    1  UNL1        0.0040
      4 C           3.5795   -1.1173    0.3415 C.ar    1  UNL1        0.0283
      5 S           4.1529   -2.7044   -0.0249 S.2     1  UNL1       -0.0949
      6 C           5.7672   -2.3468    0.4643 C.ar    1  UNL1       -0.0094
      7 C           5.8565   -1.0564    0.9006 C.ar    1  UNL1        0.0269
      8 S           7.2540   -0.1157    1.5350 S.2     1  UNL1       -0.0961
      9 C           2.1909   -0.7705    0.1173 C.ar    1  UNL1        0.0035
     10 C           1.1133   -1.3799    0.7921 C.ar    1  UNL1       -0.0098
     11 C          -0.2091   -0.9629    0.5224 C.ar    1  UNL1        0.1376
     12 O          -1.3263   -1.4857    1.1236 O.2     1  UNL1       -0.4536
     13 C          -2.3955   -0.8228    0.5989 C.ar    1  UNL1        0.1512
     14 C          -3.8957   -1.0316    0.9376 C.ar    1  UNL1        0.0628
     15 S          -4.5815   -2.1238    2.0293 S.2     1  UNL1       -0.0929
     16 C          -6.1750   -1.5624    1.6530 C.ar    1  UNL1       -0.0230
     17 C          -6.1762   -0.5526    0.7048 C.ar    1  UNL1       -0.0462
     18 C          -4.8561   -0.2770    0.3202 C.ar    1  UNL1        0.0035
     19 C          -4.3745    0.6763   -0.6183 C.ar    1  UNL1        0.0289
     20 C          -5.1160    1.5482   -1.3602 C.ar    1  UNL1        0.1000
     21 O          -4.2576    2.2914   -2.1319 O.2     1  UNL1       -0.4698
     22 C          -2.9743    1.8690   -1.8597 C.ar    1  UNL1        0.1001
     23 C          -3.0198    0.8707   -0.9299 C.ar    1  UNL1        0.0318
     24 C          -1.9741    0.1164   -0.3258 C.ar    1  UNL1        0.0404
     25 C          -0.5978    0.0275   -0.3773 C.ar    1  UNL1        0.0394
     26 C           0.4703    0.6528   -1.0804 C.ar    1  UNL1        0.0318
     27 C           0.5198    1.6235   -2.0302 C.ar    1  UNL1        0.1001
     28 O           1.8352    1.8251   -2.3653 O.2     1  UNL1       -0.4698
     29 C           2.5908    0.9650   -1.6150 C.ar    1  UNL1        0.1000
     30 C           1.7847    0.2167   -0.7873 C.ar    1  UNL1        0.0289
     31 H           6.4698    2.1339    2.0984 H       1  UNL1        0.0694
     32 H           3.9914    1.6608    1.3657 H       1  UNL1        0.0629
     33 H           6.5626   -3.0777    0.4165 H       1  UNL1        0.0705
     34 H           1.2854   -2.1630    1.5254 H       1  UNL1        0.0661
     35 H          -7.0258   -2.0070    2.1513 H       1  UNL1        0.0694
     36 H          -7.0756   -0.0733    0.3406 H       1  UNL1        0.0629
     37 H          -6.1659    1.7775   -1.4733 H       1  UNL1        0.1036
     38 H          -2.2186    2.3951   -2.4148 H       1  UNL1        0.1036
     39 H          -0.1730    2.2439   -2.5704 H       1  UNL1        0.1036
     40 H           3.6559    1.0160   -1.7966 H       1  UNL1        0.1036
@<TRIPOS>BOND
     1     1     2   ar
     2     2     3   ar
     3     3     4   ar
     4     4     5   ar
     5     5     6   ar
     6     6     7   ar
     7     7     8   ar
     8     4     9    1
     9     9    10   ar
    10    10    11   ar
    11    11    12   ar
    12    12    13   ar
    13    13    14   ar
    14    14    15   ar
    15    15    16   ar
    16    16    17   ar
    17    17    18   ar
    18    18    19   ar
    19    19    20   ar
    20    20    21   ar
    21    21    22   ar
    22    22    23   ar
    23    23    24   ar
    24    24    25   ar
    25    25    26   ar
    26    26    27   ar
    27    27    28   ar
    28    28    29   ar
    29    29    30   ar
    30     8     1   ar
    31    30     9   ar
    32     7     3   ar
    33    25    11   ar
    34    30    26   ar
    35    24    13   ar
    36    18    14   ar
    37    23    19   ar
    38     1    31    1
    39     2    32    1
    40     6    33    1
    41    10    34    1
    42    16    35    1
    43    17    36    1
    44    20    37    1
    45    22    38    1
    46    27    39    1
    47    29    40    1
