@<TRIPOS>MOLECULE
*****
 44 50 0 0 0
SMALL
GASTEIGER

@<TRIPOS>ATOM
      1 C          -6.7501    1.9882    0.7730 C.ar    1  UNL1       -0.0231
      2 C          -5.4613    1.4641    0.6177 C.ar    1  UNL1       -0.0459
      3 C          -5.4716    0.1009    0.2183 C.ar    1  UNL1        0.0040
      4 C          -4.5064   -0.8145   -0.0461 C.ar    1  UNL1        0.0282
      5 S          -5.2924   -2.3005   -0.4431 S.2     1  UNL1       -0.0949
      6 C          -6.8723   -1.6369   -0.2546 C.ar    1  UNL1       -0.0094
      7 C          -6.7951   -0.3237    0.1103 C.ar    1  UNL1        0.0269
      8 S          -8.0834    0.8843    0.4594 S.2     1  UNL1       -0.0961
      9 C          -3.0627   -0.7298   -0.0429 C.ar    1  UNL1        0.0000
     10 C          -2.2042   -1.5081    0.7711 C.ar    1  UNL1       -0.0522
     11 C          -0.7682   -1.3921    0.7684 C.ar    1  UNL1       -0.0527
     12 C          -0.0325   -0.4898   -0.0475 C.ar    1  UNL1       -0.0065
     13 C           1.4067   -0.3775   -0.0658 C.ar    1  UNL1       -0.0065
     14 C           2.2311   -0.6725   -1.1859 C.ar    1  UNL1       -0.0527
     15 C           3.6680   -0.5719   -1.1934 C.ar    1  UNL1       -0.0522
     16 C           4.4372   -0.1541   -0.0806 C.ar    1  UNL1        0.0009
     17 C           5.8800   -0.0617   -0.0802 C.ar    1  UNL1        0.0395
     18 C           6.8248   -1.0504   -0.2813 C.ar    1  UNL1        0.0425
     19 N           8.1451   -0.6418   -0.2529 N.ar    1  UNL1       -0.2551
     20 C           8.1878    0.6553   -0.0443 C.ar    1  UNL1        0.0652
     21 S           6.6761    1.4463    0.1238 S.2     1  UNL1       -0.0754
     22 C           3.6205    0.1249    1.0183 C.ar    1  UNL1        0.0287
     23 C           3.9820    0.5213    2.2808 C.ar    1  UNL1        0.1000
     24 O           2.8650    0.6884    3.0516 O.2     1  UNL1       -0.4698
     25 C           1.7796    0.3870    2.2774 C.ar    1  UNL1        0.1000
     26 C           2.1925    0.0173    1.0226 C.ar    1  UNL1        0.0282
     27 C          -0.9035    0.2607   -0.8448 C.ar    1  UNL1        0.0282
     28 C          -0.5916    1.2399   -1.7537 C.ar    1  UNL1        0.1000
     29 O          -1.7355    1.7193   -2.3286 O.2     1  UNL1       -0.4698
     30 C          -2.7893    1.0464   -1.7755 C.ar    1  UNL1        0.1000
     31 C          -2.3308    0.1511   -0.8427 C.ar    1  UNL1        0.0286
     32 H          -7.0066    2.9970    1.0674 H       1  UNL1        0.0694
     33 H          -4.5699    2.0552    0.7915 H       1  UNL1        0.0629
     34 H          -7.7689   -2.2206   -0.4109 H       1  UNL1        0.0705
     35 H          -2.6464   -2.2397    1.4495 H       1  UNL1        0.0624
     36 H          -0.2154   -2.0551    1.4375 H       1  UNL1        0.0624
     37 H           1.7513   -1.0096   -2.1075 H       1  UNL1        0.0624
     38 H           4.1833   -0.8285   -2.1207 H       1  UNL1        0.0624
     39 H           6.6037   -2.0976   -0.4509 H       1  UNL1        0.0841
     40 H           9.1209    1.2002    0.0155 H       1  UNL1        0.0907
     41 H           4.9195    0.7251    2.7790 H       1  UNL1        0.1036
     42 H           0.8210    0.4838    2.7678 H       1  UNL1        0.1036
     43 H           0.3258    1.6939   -2.1016 H       1  UNL1        0.1036
     44 H          -3.7637    1.3258   -2.1514 H       1  UNL1        0.1036
@<TRIPOS>BOND
     1     1     2   ar
     2     2     3   ar
     3     3     4   ar
     4     4     5   ar
     5     5     6   ar
     6     6     7   ar
     7     7     8   ar
     8     4     9    1
     9     9    10   ar
    10    10    11   ar
    11    11    12   ar
    12    12    13    1
    13    13    14   ar
    14    14    15   ar
    15    15    16   ar
    16    16    17    1
    17    17    18   ar
    18    18    19   ar
    19    19    20   ar
    20    20    21   ar
    21    16    22   ar
    22    22    23   ar
    23    23    24   ar
    24    24    25   ar
    25    25    26   ar
    26    12    27   ar
    27    27    28   ar
    28    28    29   ar
    29    29    30   ar
    30    30    31   ar
    31     8     1   ar
    32    31     9   ar
    33     7     3   ar
    34    26    13   ar
    35    31    27   ar
    36    21    17   ar
    37    26    22   ar
    38     1    32    1
    39     2    33    1
    40     6    34    1
    41    10    35    1
    42    11    36    1
    43    14    37    1
    44    15    38    1
    45    18    39    1
    46    20    40    1
    47    23    41    1
    48    25    42    1
    49    28    43    1
    50    30    44    1
