@<TRIPOS>MOLECULE
*****
 37 41 0 0 0
SMALL
GASTEIGER

@<TRIPOS>ATOM
      1 C          -7.4341   -0.8571   -0.8384 C.ar    1  UNL1       -0.0231
      2 C          -6.0754   -0.7946   -0.5071 C.ar    1  UNL1       -0.0459
      3 C          -5.7072    0.4519    0.0718 C.ar    1  UNL1        0.0045
      4 C          -4.5444    0.9816    0.5330 C.ar    1  UNL1        0.0341
      5 S          -4.8875    2.5922    1.0650 S.2     1  UNL1       -0.0944
      6 C          -6.5557    2.4909    0.6517 C.ar    1  UNL1       -0.0094
      7 C          -6.8395    1.2655    0.1230 C.ar    1  UNL1        0.0269
      8 S          -8.3869    0.5785   -0.4910 S.2     1  UNL1       -0.0961
      9 C          -3.2365    0.3889    0.6311 C.ar    1  UNL1        0.0271
     10 C          -2.9388   -0.8969    1.0339 C.ar    1  UNL1       -0.0458
     11 C          -1.5402   -1.1670    1.0000 C.ar    1  UNL1       -0.0449
     12 C          -0.7856   -0.0864    0.5729 C.ar    1  UNL1        0.0381
     13 S          -1.8121    1.2432    0.2156 S.2     1  UNL1       -0.0862
     14 C           0.6784   -0.0126    0.4153 C.ar    1  UNL1        0.0776
     15 C           1.3778    1.1406    0.0801 C.ar    1  UNL1       -0.0346
     16 C           2.7694    1.0798   -0.0416 C.ar    1  UNL1       -0.0491
     17 C           3.4616   -0.1201    0.1663 C.ar    1  UNL1        0.0185
     18 C           2.6664   -1.2103    0.5122 C.ar    1  UNL1        0.0374
     19 N           1.3134   -1.1903    0.6343 N.ar    1  UNL1       -0.2538
     20 C           4.9277   -0.2022    0.0374 C.ar    1  UNL1        0.0724
     21 C           5.6010   -1.3707   -0.3237 C.ar    1  UNL1       -0.0356
     22 C           6.9922   -1.3584   -0.4205 C.ar    1  UNL1       -0.0583
     23 C           7.6831   -0.1841   -0.1587 C.ar    1  UNL1       -0.0436
     24 C           6.9499    0.9358    0.1852 C.ar    1  UNL1        0.0283
     25 N           5.6019    0.9514    0.2836 N.ar    1  UNL1       -0.2549
     26 H          -7.9518   -1.6935   -1.2882 H       1  UNL1        0.0694
     27 H          -5.3986   -1.6200   -0.6910 H       1  UNL1        0.0629
     28 H          -7.2428    3.3113    0.8068 H       1  UNL1        0.0705
     29 H          -3.6838   -1.6162    1.3516 H       1  UNL1        0.0629
     30 H          -1.0963   -2.1157    1.2805 H       1  UNL1        0.0630
     31 H           0.8785    2.0884   -0.0865 H       1  UNL1        0.0639
     32 H           3.3163    1.9845   -0.3030 H       1  UNL1        0.0625
     33 H           3.1012   -2.1826    0.7288 H       1  UNL1        0.0836
     34 H           5.0657   -2.2871   -0.5490 H       1  UNL1        0.0639
     35 H           7.5292   -2.2597   -0.7027 H       1  UNL1        0.0619
     36 H           8.7642   -0.1409   -0.2249 H       1  UNL1        0.0633
     37 H           7.4392    1.8821    0.3977 H       1  UNL1        0.0830
@<TRIPOS>BOND
     1     1     2   ar
     2     2     3   ar
     3     3     4   ar
     4     4     5   ar
     5     5     6   ar
     6     6     7   ar
     7     7     8   ar
     8     4     9    1
     9     9    10   ar
    10    10    11   ar
    11    11    12   ar
    12    12    13   ar
    13    12    14    1
    14    14    15   ar
    15    15    16   ar
    16    16    17   ar
    17    17    18   ar
    18    18    19   ar
    19    17    20    1
    20    20    21   ar
    21    21    22   ar
    22    22    23   ar
    23    23    24   ar
    24    24    25   ar
    25     8     1   ar
    26    13     9   ar
    27    19    14   ar
    28    25    20   ar
    29     7     3   ar
    30     1    26    1
    31     2    27    1
    32     6    28    1
    33    10    29    1
    34    11    30    1
    35    15    31    1
    36    16    32    1
    37    18    33    1
    38    21    34    1
    39    22    35    1
    40    23    36    1
    41    24    37    1
