@<TRIPOS>MOLECULE
*****
 40 46 0 0 0
SMALL
GASTEIGER

@<TRIPOS>ATOM
      1 C           6.2342    1.3878    0.1076 C.ar    1  UNL1       -0.0231
      2 C           4.9112    0.9341    0.0468 C.ar    1  UNL1       -0.0459
      3 C           4.7470   -0.3511    0.6305 C.ar    1  UNL1        0.0040
      4 C           3.6902   -1.1862    0.7991 C.ar    1  UNL1        0.0290
      5 S           4.2781   -2.6108    1.5844 S.2     1  UNL1       -0.0949
      6 C           5.9003   -2.0343    1.6517 C.ar    1  UNL1       -0.0094
      7 C           5.9867   -0.7931    1.0910 C.ar    1  UNL1        0.0269
      8 S           7.3949    0.3058    0.8663 S.2     1  UNL1       -0.0961
      9 C           2.2758   -1.0426    0.4662 C.ar    1  UNL1        0.0080
     10 C           1.5802   -2.0298   -0.2435 C.ar    1  UNL1        0.0366
     11 N           0.2710   -1.9665   -0.6051 N.ar    1  UNL1       -0.2523
     12 C          -0.3897   -0.8460   -0.2344 C.ar    1  UNL1        0.0955
     13 C          -1.7513   -0.7995   -0.6199 C.ar    1  UNL1        0.0759
     14 N          -2.5336   -1.7014   -1.3116 N.ar    1  UNL1       -0.3512
     15 C          -3.8232   -1.2258   -1.4585 C.ar    1  UNL1        0.0661
     16 C          -4.9412   -1.7851   -2.0779 C.ar    1  UNL1       -0.0348
     17 C          -6.1042   -1.0207   -2.0400 C.ar    1  UNL1       -0.0416
     18 C          -6.0873    0.2160   -1.4085 C.ar    1  UNL1        0.0284
     19 N          -5.0197    0.7773   -0.8034 N.ar    1  UNL1       -0.2528
     20 C          -3.8886    0.0291   -0.8422 C.ar    1  UNL1        0.0968
     21 C          -2.6060    0.2542   -0.3423 C.ar    1  UNL1        0.0369
     22 C          -2.0559    1.3471    0.3783 C.ar    1  UNL1        0.0113
     23 C          -2.6308    2.5072    0.7959 C.ar    1  UNL1        0.0101
     24 N          -1.6220    3.1863    1.4464 N.ar    1  UNL1       -0.3659
     25 C          -0.4472    2.4469    1.4222 C.ar    1  UNL1        0.0101
     26 C          -0.7019    1.2726    0.7476 C.ar    1  UNL1        0.0093
     27 C           0.2089    0.2207    0.4863 C.ar    1  UNL1        0.0121
     28 C           1.5690    0.1063    0.8361 C.ar    1  UNL1       -0.0422
     29 H           6.6126    2.3296   -0.2664 H       1  UNL1        0.0694
     30 H           4.1197    1.5179   -0.4077 H       1  UNL1        0.0629
     31 H           6.7039   -2.6123    2.0871 H       1  UNL1        0.0705
     32 H           2.0812   -2.9396   -0.5676 H       1  UNL1        0.0836
     33 H          -2.1849   -2.5859   -1.6538 H       1  UNL1        0.1660
     34 H          -4.9105   -2.7553   -2.5599 H       1  UNL1        0.0639
     35 H          -7.0175   -1.3851   -2.4988 H       1  UNL1        0.0633
     36 H          -6.9907    0.8203   -1.3737 H       1  UNL1        0.0830
     37 H          -3.6295    2.9129    0.7029 H       1  UNL1        0.0813
     38 H          -1.7253    4.0943    1.8805 H       1  UNL1        0.1648
     39 H           0.4439    2.8394    1.8921 H       1  UNL1        0.0813
     40 H           2.0523    0.9008    1.3963 H       1  UNL1        0.0631
@<TRIPOS>BOND
     1     1     2   ar
     2     2     3   ar
     3     3     4   ar
     4     4     5   ar
     5     5     6   ar
     6     6     7   ar
     7     7     8   ar
     8     4     9    1
     9     9    10   ar
    10    10    11   ar
    11    11    12   ar
    12    12    13   ar
    13    13    14   ar
    14    14    15   ar
    15    15    16   ar
    16    16    17   ar
    17    17    18   ar
    18    18    19   ar
    19    19    20   ar
    20    20    21   ar
    21    21    22   ar
    22    22    23   ar
    23    23    24   ar
    24    24    25   ar
    25    25    26   ar
    26    26    27   ar
    27    27    28   ar
    28     8     1   ar
    29    28     9   ar
    30     7     3   ar
    31    27    12   ar
    32    21    13   ar
    33    26    22   ar
    34    20    15   ar
    35     1    29    1
    36     2    30    1
    37     6    31    1
    38    10    32    1
    39    14    33    1
    40    16    34    1
    41    17    35    1
    42    18    36    1
    43    23    37    1
    44    24    38    1
    45    25    39    1
    46    28    40    1
