@<TRIPOS>MOLECULE
*****
 34 39 0 0 0
SMALL
GASTEIGER

@<TRIPOS>ATOM
      1 C          -5.7129    1.9748   -0.8922 C.ar    1  UNL1       -0.0231
      2 C          -4.4275    1.4364   -0.7583 C.ar    1  UNL1       -0.0459
      3 C          -4.4373    0.1343   -0.1896 C.ar    1  UNL1        0.0040
      4 C          -3.4749   -0.7714    0.1201 C.ar    1  UNL1        0.0290
      5 S          -4.2664   -2.1671    0.7655 S.2     1  UNL1       -0.0949
      6 C          -5.8398   -1.4864    0.5942 C.ar    1  UNL1       -0.0094
      7 C          -5.7593   -0.2330    0.0603 C.ar    1  UNL1        0.0269
      8 S          -7.0433    0.9595   -0.3515 S.2     1  UNL1       -0.0961
      9 C          -2.0203   -0.7176    0.0182 C.ar    1  UNL1        0.0080
     10 C          -1.2868   -1.7202   -0.6154 C.ar    1  UNL1        0.0365
     11 N           0.0625   -1.7183   -0.7502 N.ar    1  UNL1       -0.2531
     12 C           0.7251   -0.6612   -0.2230 C.ar    1  UNL1        0.0882
     13 C           2.1253   -0.6425   -0.3506 C.ar    1  UNL1        0.0646
     14 S           3.1810   -1.7769   -1.0910 S.2     1  UNL1       -0.0844
     15 C           4.5837   -0.8613   -0.7163 C.ar    1  UNL1        0.0249
     16 C           5.9106   -1.1828   -1.0278 C.ar    1  UNL1       -0.0292
     17 C           6.8683   -0.2761   -0.6144 C.ar    1  UNL1        0.0286
     18 N           6.5999    0.8626    0.0504 N.ar    1  UNL1       -0.2625
     19 C           5.3120    1.1605    0.3453 C.ar    1  UNL1        0.0378
     20 C           4.2618    0.3076   -0.0290 C.ar    1  UNL1        0.0333
     21 C           2.8432    0.4286    0.1792 C.ar    1  UNL1        0.0892
     22 N           2.2448    1.4729    0.8239 N.ar    1  UNL1       -0.2531
     23 C           0.9034    1.4186    0.9271 C.ar    1  UNL1        0.0375
     24 C           0.0977    0.3998    0.4332 C.ar    1  UNL1        0.0202
     25 C          -1.3030    0.3610    0.5485 C.ar    1  UNL1       -0.0414
     26 H          -5.9694    2.9448   -1.2967 H       1  UNL1        0.0694
     27 H          -3.5410    1.9748   -1.0709 H       1  UNL1        0.0629
     28 H          -6.7365   -2.0176    0.8829 H       1  UNL1        0.0705
     29 H          -1.7765   -2.5837   -1.0601 H       1  UNL1        0.0836
     30 H           6.1745   -2.0877   -1.5611 H       1  UNL1        0.0644
     31 H           7.9215   -0.4523   -0.8174 H       1  UNL1        0.0830
     32 H           5.1418    2.0881    0.8826 H       1  UNL1        0.0836
     33 H           0.4656    2.2675    1.4488 H       1  UNL1        0.0836
     34 H          -1.8278    1.1641    1.0615 H       1  UNL1        0.0631
@<TRIPOS>BOND
     1     1     2   ar
     2     2     3   ar
     3     3     4   ar
     4     4     5   ar
     5     5     6   ar
     6     6     7   ar
     7     7     8   ar
     8     4     9    1
     9     9    10   ar
    10    10    11   ar
    11    11    12   ar
    12    12    13   ar
    13    13    14   ar
    14    14    15   ar
    15    15    16   ar
    16    16    17   ar
    17    17    18   ar
    18    18    19   ar
    19    19    20   ar
    20    20    21   ar
    21    21    22   ar
    22    22    23   ar
    23    23    24   ar
    24    24    25   ar
    25     8     1   ar
    26    25     9   ar
    27     7     3   ar
    28    24    12   ar
    29    21    13   ar
    30    20    15   ar
    31     1    26    1
    32     2    27    1
    33     6    28    1
    34    10    29    1
    35    16    30    1
    36    17    31    1
    37    19    32    1
    38    23    33    1
    39    25    34    1
