@<TRIPOS>MOLECULE
*****
 34 38 0 0 0
SMALL
GASTEIGER

@<TRIPOS>ATOM
      1 C           6.3975    2.5892   -0.2946 C.ar    1  UNL1       -0.0231
      2 C           5.1373    1.9852   -0.2200 C.ar    1  UNL1       -0.0458
      3 C           5.2082    0.5852    0.0278 C.ar    1  UNL1        0.0060
      4 C           4.2852   -0.4027    0.1783 C.ar    1  UNL1        0.0525
      5 S           5.1636   -1.8709    0.4584 S.2     1  UNL1       -0.0929
      6 C           6.7018   -1.1077    0.3629 C.ar    1  UNL1       -0.0094
      7 C           6.5529    0.2268    0.1246 C.ar    1  UNL1        0.0270
      8 S           7.7813    1.5292   -0.0734 S.2     1  UNL1       -0.0961
      9 C           2.8445   -0.3196    0.1275 C.ar    1  UNL1        0.1160
     10 N           2.2241    0.8240   -0.0889 N.ar    1  UNL1       -0.2461
     11 C           0.8553    0.6279   -0.0888 C.ar    1  UNL1        0.0462
     12 C           0.4311   -0.6670    0.1279 C.ar    1  UNL1        0.0744
     13 S           1.7985   -1.6732    0.3389 S.2     1  UNL1       -0.0636
     14 C          -0.9236   -1.1338    0.1758 C.ar    1  UNL1        0.1438
     15 C          -1.4238   -2.4081    0.3869 C.ar    1  UNL1       -0.0146
     16 C          -2.8379   -2.3209    0.3361 C.ar    1  UNL1       -0.0137
     17 C          -3.1444   -0.9967    0.0961 C.ar    1  UNL1        0.1538
     18 O          -1.9836   -0.2825   -0.0001 O.2     1  UNL1       -0.4527
     19 C          -4.3874   -0.2463   -0.0667 C.ar    1  UNL1        0.1060
     20 C          -5.6323   -0.8656    0.0107 C.ar    1  UNL1       -0.0327
     21 C          -6.7805   -0.0928   -0.1537 C.ar    1  UNL1       -0.0582
     22 C          -6.6557    1.2703   -0.3897 C.ar    1  UNL1       -0.0436
     23 C          -5.3818    1.8074   -0.4520 C.ar    1  UNL1        0.0284
     24 N          -4.2529    1.0832   -0.2966 N.ar    1  UNL1       -0.2519
     25 H           6.6011    3.6363   -0.4735 H       1  UNL1        0.0694
     26 H           4.2170    2.5454   -0.3416 H       1  UNL1        0.0629
     27 H           7.6297   -1.6501    0.4816 H       1  UNL1        0.0705
     28 H           0.1988    1.4751   -0.2541 H       1  UNL1        0.0842
     29 H          -0.8390   -3.3014    0.5583 H       1  UNL1        0.0656
     30 H          -3.5419   -3.1309    0.4606 H       1  UNL1        0.0656
     31 H          -5.7228   -1.9300    0.1951 H       1  UNL1        0.0640
     32 H          -7.7633   -0.5521   -0.0978 H       1  UNL1        0.0619
     33 H          -7.5286    1.8998   -0.5220 H       1  UNL1        0.0633
     34 H          -5.2282    2.8672   -0.6340 H       1  UNL1        0.0830
@<TRIPOS>BOND
     1     1     2   ar
     2     2     3   ar
     3     3     4   ar
     4     4     5   ar
     5     5     6   ar
     6     6     7   ar
     7     7     8   ar
     8     4     9    1
     9     9    10   ar
    10    10    11   ar
    11    11    12   ar
    12    12    13   ar
    13    12    14    1
    14    14    15   ar
    15    15    16   ar
    16    16    17   ar
    17    17    18   ar
    18    17    19    1
    19    19    20   ar
    20    20    21   ar
    21    21    22   ar
    22    22    23   ar
    23    23    24   ar
    24     8     1   ar
    25    13     9   ar
    26    18    14   ar
    27    24    19   ar
    28     7     3   ar
    29     1    25    1
    30     2    26    1
    31     6    27    1
    32    11    28    1
    33    15    29    1
    34    16    30    1
    35    20    31    1
    36    21    32    1
    37    22    33    1
    38    23    34    1
