@<TRIPOS>MOLECULE
*****
 36 41 0 0 0
SMALL
GASTEIGER

@<TRIPOS>ATOM
      1 C          -7.7952   -0.6175    0.7319 C.ar    1  UNL1       -0.0231
      2 C          -6.4003   -0.5355    0.8096 C.ar    1  UNL1       -0.0458
      3 C          -5.7877   -0.3085   -0.4553 C.ar    1  UNL1        0.0060
      4 C          -4.5032   -0.1604   -0.8782 C.ar    1  UNL1        0.0525
      5 S          -4.5657    0.0875   -2.5930 S.2     1  UNL1       -0.0929
      6 C          -6.2807   -0.0169   -2.6646 C.ar    1  UNL1       -0.0094
      7 C          -6.7930   -0.2341   -1.4198 C.ar    1  UNL1        0.0270
      8 S          -8.4966   -0.4294   -0.8680 S.2     1  UNL1       -0.0961
      9 C          -3.2807   -0.1914   -0.1102 C.ar    1  UNL1        0.1160
     10 N          -3.2875   -0.3836    1.1952 N.ar    1  UNL1       -0.2461
     11 C          -1.9946   -0.3689    1.6840 C.ar    1  UNL1        0.0462
     12 C          -0.9981   -0.1652    0.7518 C.ar    1  UNL1        0.0744
     13 S          -1.7135    0.0142   -0.7947 S.2     1  UNL1       -0.0636
     14 C           0.4206   -0.0997    0.9528 C.ar    1  UNL1        0.1438
     15 C           1.1400   -0.2241    2.1272 C.ar    1  UNL1       -0.0147
     16 C           2.5097   -0.0836    1.7949 C.ar    1  UNL1       -0.0146
     17 C           2.5873    0.1224    0.4286 C.ar    1  UNL1        0.1444
     18 O           1.3079    0.1099   -0.0692 O.2     1  UNL1       -0.4537
     19 C           3.7437    0.3228   -0.4078 C.ar    1  UNL1        0.0819
     20 S           3.5498    0.5601   -2.1106 S.2     1  UNL1       -0.0893
     21 C           5.2335    0.7125   -2.3800 C.ar    1  UNL1        0.0039
     22 C           5.9358    0.5876   -1.2110 C.ar    1  UNL1        0.0969
     23 N           7.2942    0.6709   -1.1588 N.ar    1  UNL1       -0.2514
     24 C           7.7382    0.5131    0.1168 C.ar    1  UNL1        0.0464
     25 C           6.9211    0.2945    1.2315 C.ar    1  UNL1        0.0464
     26 N           5.5627    0.2074    1.2057 N.ar    1  UNL1       -0.2507
     27 C           5.0816    0.3620   -0.0655 C.ar    1  UNL1        0.1069
     28 H          -8.4785   -0.7841    1.5536 H       1  UNL1        0.0694
     29 H          -5.8645   -0.6373    1.7463 H       1  UNL1        0.0629
     30 H          -6.8319    0.0822   -3.5897 H       1  UNL1        0.0705
     31 H          -1.8410   -0.5148    2.7462 H       1  UNL1        0.0842
     32 H           0.7325   -0.3964    3.1135 H       1  UNL1        0.0656
     33 H           3.3466   -0.1280    2.4786 H       1  UNL1        0.0656
     34 H           5.6242    0.8845   -3.3724 H       1  UNL1        0.0715
     35 H           8.8171    0.5681    0.2340 H       1  UNL1        0.0845
     36 H           7.3660    0.1795    2.2163 H       1  UNL1        0.0845
@<TRIPOS>BOND
     1     1     2   ar
     2     2     3   ar
     3     3     4   ar
     4     4     5   ar
     5     5     6   ar
     6     6     7   ar
     7     7     8   ar
     8     4     9    1
     9     9    10   ar
    10    10    11   ar
    11    11    12   ar
    12    12    13   ar
    13    12    14    1
    14    14    15   ar
    15    15    16   ar
    16    16    17   ar
    17    17    18   ar
    18    17    19    1
    19    19    20   ar
    20    20    21   ar
    21    21    22   ar
    22    22    23   ar
    23    23    24   ar
    24    24    25   ar
    25    25    26   ar
    26    26    27   ar
    27     8     1   ar
    28    13     9   ar
    29    18    14   ar
    30    27    19   ar
    31     7     3   ar
    32    27    22   ar
    33     1    28    1
    34     2    29    1
    35     6    30    1
    36    11    31    1
    37    15    32    1
    38    16    33    1
    39    21    34    1
    40    24    35    1
    41    25    36    1
