@<TRIPOS>MOLECULE
*****
 39 42 0 0 0
SMALL
GASTEIGER

@<TRIPOS>ATOM
      1 C           3.3592   -1.1184    2.3542 C.ar    1  UNL1       -0.0594
      2 C           2.0035   -1.3562    2.1261 C.ar    1  UNL1       -0.0401
      3 C           1.3831   -0.8911    0.9611 C.ar    1  UNL1        0.0382
      4 C           2.1549   -0.2439   -0.0138 C.ar    1  UNL1        0.0239
      5 C           1.5427    0.1690   -1.2052 C.ar    1  UNL1        0.0382
      6 C           2.3226    0.7605   -2.2053 C.ar    1  UNL1       -0.0401
      7 C           3.6802    1.0058   -1.9974 C.ar    1  UNL1       -0.0594
      8 C           4.2821    0.6302   -0.7968 C.ar    1  UNL1       -0.0539
      9 C           3.5341   -0.0098    0.2022 C.ar    1  UNL1       -0.0144
     10 C           4.1200   -0.4423    1.4009 C.ar    1  UNL1       -0.0539
     11 N           0.1917   -0.1205   -1.4527 N.pl3   1  UNL1       -0.3229
     12 C          -0.6567   -0.3804   -0.2855 C.3     1  UNL1        0.0965
     13 C          -1.0844    0.9634    0.3639 C.3     1  UNL1       -0.0150
     14 C          -2.2410    1.6931   -0.3231 C.3     1  UNL1       -0.0496
     15 C          -3.6079    1.2624    0.2057 C.3     1  UNL1       -0.0529
     16 C          -4.0625   -0.1269   -0.2259 C.3     1  UNL1       -0.0529
     17 C          -3.0853   -1.2576    0.0893 C.3     1  UNL1       -0.0496
     18 C          -1.8448   -1.2311   -0.8058 C.3     1  UNL1       -0.0150
     19 N           0.0346   -1.1949    0.7186 N.pl3   1  UNL1       -0.3229
     20 H           3.8257   -1.4743    3.2688 H       1  UNL1        0.0618
     21 H           1.4318   -1.9098    2.8654 H       1  UNL1        0.0636
     22 H           1.8749    1.0345   -3.1563 H       1  UNL1        0.0636
     23 H           4.2717    1.4771   -2.7776 H       1  UNL1        0.0618
     24 H           5.3435    0.8191   -0.6554 H       1  UNL1        0.0624
     25 H           5.1778   -0.2757    1.5893 H       1  UNL1        0.0624
     26 H          -0.2246    0.5140   -2.1228 H       1  UNL1        0.1481
     27 H          -0.2253    1.6479    0.3825 H       1  UNL1        0.0302
     28 H          -1.3413    0.8087    1.4208 H       1  UNL1        0.0302
     29 H          -2.1338    2.7635   -0.1046 H       1  UNL1        0.0266
     30 H          -2.1920    1.5962   -1.4130 H       1  UNL1        0.0266
     31 H          -3.6150    1.3226    1.3012 H       1  UNL1        0.0265
     32 H          -4.3565    1.9856   -0.1416 H       1  UNL1        0.0265
     33 H          -5.0145   -0.3422    0.2755 H       1  UNL1        0.0265
     34 H          -4.2821   -0.1189   -1.3009 H       1  UNL1        0.0265
     35 H          -2.8199   -1.2619    1.1520 H       1  UNL1        0.0266
     36 H          -3.6118   -2.2019   -0.1006 H       1  UNL1        0.0266
     37 H          -2.1398   -0.9022   -1.8119 H       1  UNL1        0.0302
     38 H          -1.4994   -2.2669   -0.9388 H       1  UNL1        0.0302
     39 H          -0.4954   -1.3266    1.5709 H       1  UNL1        0.1481
@<TRIPOS>BOND
     1     1     2   ar
     2     2     3   ar
     3     3     4   ar
     4     4     5   ar
     5     5     6   ar
     6     6     7   ar
     7     7     8   ar
     8     8     9   ar
     9     9    10   ar
    10     5    11    1
    11    11    12    1
    12    12    13    1
    13    13    14    1
    14    14    15    1
    15    15    16    1
    16    16    17    1
    17    17    18    1
    18    12    19    1
    19    10     1   ar
    20    18    12    1
    21    19     3    1
    22     9     4   ar
    23     1    20    1
    24     2    21    1
    25     6    22    1
    26     7    23    1
    27     8    24    1
    28    10    25    1
    29    11    26    1
    30    13    27    1
    31    13    28    1
    32    14    29    1
    33    14    30    1
    34    15    31    1
    35    15    32    1
    36    16    33    1
    37    16    34    1
    38    17    35    1
    39    17    36    1
    40    18    37    1
    41    18    38    1
    42    19    39    1
