@<TRIPOS>MOLECULE
*****
 40 45 0 0 0
SMALL
GASTEIGER

@<TRIPOS>ATOM
      1 SI         -1.8344   -4.1218   -0.3264 Si      1  UNL1        0.0000
      2 C          -0.1515   -3.3427   -0.3630 C.2     1  UNL1        0.0000
      3 C          -0.2245   -2.0162   -0.1386 C.ar    1  UNL1        0.0000
      4 C           0.8745   -1.1156   -0.0984 C.ar    1  UNL1        0.0000
      5 C           2.2609   -1.3131   -0.2660 C.ar    1  UNL1        0.0000
      6 C           2.8758   -0.0805   -0.1242 C.ar    1  UNL1        0.0000
      7 N           1.8771    0.8380    0.1236 N.ar    1  UNL1        0.0000
      8 C           0.6478    0.2230    0.1429 C.ar    1  UNL1        0.0000
      9 C          -0.6666    0.8394    0.3721 C.ar    1  UNL1        0.0000
     10 C          -0.7815    2.2099    0.6076 C.ar    1  UNL1        0.0000
     11 C          -2.0318    2.7719    0.8217 C.ar    1  UNL1        0.0000
     12 C          -3.1828    1.9769    0.8039 C.ar    1  UNL1        0.0000
     13 C          -4.4297    2.5798    1.0243 C.ar    1  UNL1        0.0000
     14 C          -5.5863    1.8182    1.0126 C.ar    1  UNL1        0.0000
     15 C          -5.4525    0.4704    0.7789 C.ar    1  UNL1        0.0000
     16 N          -4.2663   -0.1380    0.5634 N.ar    1  UNL1        0.0000
     17 C          -3.1137    0.5800    0.5684 C.ar    1  UNL1        0.0000
     18 C          -1.8337    0.0050    0.3494 C.ar    1  UNL1        0.0000
     19 C          -1.6017   -1.4714    0.0850 C.ar    1  UNL1        0.0000
     20 C          -2.5466   -2.4366    0.0191 C.2     1  UNL1        0.0000
     21 C           4.2700    0.2421   -0.2075 C.ar    1  UNL1        0.0000
     22 C           5.3428   -0.5979   -0.4493 C.ar    1  UNL1        0.0000
     23 C           6.5257    0.1803   -0.4375 C.ar    1  UNL1        0.0000
     24 C           6.1527    1.4798   -0.1889 C.ar    1  UNL1        0.0000
     25 N           4.7885    1.5070   -0.0514 N.ar    1  UNL1        0.0000
     26 H          -2.2398   -4.6587   -1.6485 H       1  UNL1        0.0000
     27 H          -2.0000   -5.0613    0.8097 H       1  UNL1        0.0000
     28 H           0.7381   -3.9232   -0.5448 H       1  UNL1        0.0000
     29 H           2.7634   -2.2492   -0.4683 H       1  UNL1        0.0000
     30 H           2.0259    1.8227    0.2704 H       1  UNL1        0.0000
     31 H           0.0867    2.8597    0.6293 H       1  UNL1        0.0000
     32 H          -2.1012    3.8425    1.0037 H       1  UNL1        0.0000
     33 H          -4.5069    3.6491    1.2069 H       1  UNL1        0.0000
     34 H          -6.5594    2.2636    1.1805 H       1  UNL1        0.0000
     35 H          -6.3177   -0.1857    0.7559 H       1  UNL1        0.0000
     36 H          -3.6115   -2.3360    0.1394 H       1  UNL1        0.0000
     37 H           5.2826   -1.6653   -0.6178 H       1  UNL1        0.0000
     38 H           7.5368   -0.1725   -0.5938 H       1  UNL1        0.0000
     39 H           6.7372    2.3853   -0.0979 H       1  UNL1        0.0000
     40 H           4.2535    2.3411    0.1370 H       1  UNL1        0.0000
@<TRIPOS>BOND
     1     1     2    1
     2     2     3    2
     3     3     4   ar
     4     4     5   ar
     5     5     6   ar
     6     6     7   ar
     7     7     8   ar
     8     8     9   ar
     9     9    10   ar
    10    10    11   ar
    11    11    12   ar
    12    12    13   ar
    13    13    14   ar
    14    14    15   ar
    15    15    16   ar
    16    16    17   ar
    17    17    18   ar
    18    18    19   ar
    19    19    20    2
    20     6    21    1
    21    21    22   ar
    22    22    23   ar
    23    23    24   ar
    24    24    25   ar
    25    20     1    1
    26    25    21   ar
    27    19     3   ar
    28     8     4   ar
    29    18     9   ar
    30    17    12   ar
    31     1    26    1
    32     1    27    1
    33     2    28    1
    34     5    29    1
    35     7    30    1
    36    10    31    1
    37    11    32    1
    38    13    33    1
    39    14    34    1
    40    15    35    1
    41    20    36    1
    42    22    37    1
    43    23    38    1
    44    24    39    1
    45    25    40    1
