@<TRIPOS>MOLECULE
*****
 44 50 0 0 0
SMALL
GASTEIGER

@<TRIPOS>ATOM
      1 C          -0.4612   -0.1344   -3.6929 C.3     1  UNL1       -0.0148
      2 C          -1.0826   -0.3243   -2.3438 C.2     1  UNL1       -0.0719
      3 C          -0.1757   -0.1080   -1.3728 C.ar    1  UNL1       -0.0114
      4 C          -0.3148   -0.2603    0.0964 C.ar    1  UNL1        0.0167
      5 C           0.8961   -0.5683    0.7710 C.ar    1  UNL1        0.0805
      6 N           0.8991   -1.0984    2.0131 N.ar    1  UNL1       -0.2537
      7 C          -0.2923   -1.3122    2.5992 C.ar    1  UNL1        0.0360
      8 C          -1.5184   -0.9114    2.0790 C.ar    1  UNL1        0.0014
      9 C          -2.6864   -1.1641    2.8072 C.ar    1  UNL1       -0.0520
     10 C          -3.9172   -0.7127    2.3519 C.ar    1  UNL1       -0.0534
     11 C          -3.9954    0.0848    1.2125 C.ar    1  UNL1       -0.0173
     12 C          -5.2399    0.6267    0.8465 C.ar    1  UNL1       -0.0540
     13 C          -5.3501    1.5189   -0.2147 C.ar    1  UNL1       -0.0612
     14 C          -4.2095    1.8991   -0.9007 C.ar    1  UNL1       -0.0611
     15 C          -2.9722    1.3478   -0.5519 C.ar    1  UNL1       -0.0534
     16 C          -2.8206    0.3745    0.4674 C.ar    1  UNL1       -0.0095
     17 C          -1.5540   -0.2494    0.8312 C.ar    1  UNL1        0.0010
     18 C           2.2158   -0.2933    0.1549 C.ar    1  UNL1        0.0178
     19 C           3.4743   -0.2986    0.7864 C.ar    1  UNL1        0.0092
     20 C           3.7863   -0.5870    2.0949 C.ar    1  UNL1        0.0101
     21 N           5.1489   -0.4529    2.2506 N.ar    1  UNL1       -0.3659
     22 C           5.7266   -0.0669    1.0631 C.ar    1  UNL1        0.0094
     23 C           4.7117    0.0373    0.1473 C.ar    1  UNL1        0.0001
     24 C           4.8773    0.4198   -1.1735 C.ar    1  UNL1       -0.0520
     25 C           3.6349    0.4367   -1.8407 C.ar    1  UNL1       -0.0528
     26 C           2.3710    0.0978   -1.2240 C.ar    1  UNL1       -0.0078
     27 C           1.1245    0.0968   -2.0089 C.ar    1  UNL1       -0.0134
     28 C           0.9723    0.1170   -3.3444 C.2     1  UNL1       -0.0719
     29 H          -0.5627   -1.0382   -4.3008 H       1  UNL1        0.0350
     30 H          -0.9017    0.7170   -4.2193 H       1  UNL1        0.0350
     31 H          -2.1118   -0.6216   -2.2098 H       1  UNL1        0.0581
     32 H          -0.2241   -1.8085    3.5646 H       1  UNL1        0.0836
     33 H          -2.6486   -1.7166    3.7443 H       1  UNL1        0.0624
     34 H          -4.8065   -0.9359    2.9376 H       1  UNL1        0.0624
     35 H          -6.1376    0.3766    1.4087 H       1  UNL1        0.0624
     36 H          -6.3160    1.9407   -0.4780 H       1  UNL1        0.0618
     37 H          -4.2695    2.6329   -1.7001 H       1  UNL1        0.0618
     38 H          -2.1004    1.7290   -1.0784 H       1  UNL1        0.0624
     39 H           3.1761   -0.8795    2.9380 H       1  UNL1        0.0813
     40 H           5.6472   -0.6104    3.1165 H       1  UNL1        0.1648
     41 H           6.7931    0.0966    0.9929 H       1  UNL1        0.0813
     42 H           5.8139    0.6763   -1.6464 H       1  UNL1        0.0624
     43 H           3.6471    0.7289   -2.8899 H       1  UNL1        0.0624
     44 H           1.7528    0.1981   -4.0844 H       1  UNL1        0.0581
@<TRIPOS>BOND
     1     1     2    1
     2     2     3    2
     3     3     4   ar
     4     4     5   ar
     5     5     6   ar
     6     6     7   ar
     7     7     8   ar
     8     8     9   ar
     9     9    10   ar
    10    10    11   ar
    11    11    12   ar
    12    12    13   ar
    13    13    14   ar
    14    14    15   ar
    15    15    16   ar
    16    16    17   ar
    17     5    18   ar
    18    18    19   ar
    19    19    20   ar
    20    20    21   ar
    21    21    22   ar
    22    22    23   ar
    23    23    24   ar
    24    24    25   ar
    25    25    26   ar
    26    26    27   ar
    27    27    28    2
    28    28     1    1
    29    27     3   ar
    30     4    17   ar
    31    26    18   ar
    32    17     8   ar
    33    23    19   ar
    34    16    11   ar
    35     1    29    1
    36     1    30    1
    37     2    31    1
    38     7    32    1
    39     9    33    1
    40    10    34    1
    41    12    35    1
    42    13    36    1
    43    14    37    1
    44    15    38    1
    45    20    39    1
    46    21    40    1
    47    22    41    1
    48    24    42    1
    49    25    43    1
    50    28    44    1
