@<TRIPOS>MOLECULE
*****
 45 53 0 0 0
SMALL
GASTEIGER

@<TRIPOS>ATOM
      1 C          -6.1892    1.4185   -0.1331 C.ar    1  UNL1        0.0932
      2 C          -6.1546    0.0685    0.1539 C.ar    1  UNL1       -0.0155
      3 C          -4.7957   -0.2101    0.2221 C.ar    1  UNL1        0.0299
      4 C          -4.0770   -1.3981    0.4289 C.ar    1  UNL1        0.0108
      5 C          -4.5817   -2.6526    0.5836 C.ar    1  UNL1        0.0101
      6 N          -3.4685   -3.4553    0.6363 N.ar    1  UNL1       -0.3659
      7 C          -2.3218   -2.6892    0.4858 C.ar    1  UNL1        0.0100
      8 C          -2.6607   -1.3524    0.4361 C.ar    1  UNL1        0.0086
      9 C          -1.7814   -0.2183    0.2831 C.ar    1  UNL1        0.0053
     10 C          -2.6282    0.9354   -0.0264 C.ar    1  UNL1        0.0370
     11 C          -1.8748    2.0665   -0.3480 C.ar    1  UNL1        0.0317
     12 C          -2.3342    3.3053   -0.7255 C.ar    1  UNL1        0.1001
     13 O          -1.2846    4.1378   -0.9783 O.2     1  UNL1       -0.4698
     14 C          -0.1435    3.4256   -0.7594 C.ar    1  UNL1        0.1000
     15 C          -0.4524    2.1428   -0.3718 C.ar    1  UNL1        0.0283
     16 C           0.4457    1.1112   -0.0275 C.ar    1  UNL1       -0.0038
     17 C           1.8631    1.3044   -0.0615 C.ar    1  UNL1       -0.0429
     18 C           2.7710    0.3271    0.3535 C.ar    1  UNL1        0.0181
     19 C           4.2141    0.5082    0.3148 C.ar    1  UNL1        0.0297
     20 S           4.9477    1.8700    1.0904 S.2     1  UNL1       -0.0949
     21 C           6.5429    1.4053    0.6354 C.ar    1  UNL1       -0.0094
     22 C           6.5123    0.2490   -0.0889 C.ar    1  UNL1        0.0269
     23 S           7.8395   -0.7102   -0.8376 S.2     1  UNL1       -0.0961
     24 C           6.5531   -1.7800   -1.3794 C.ar    1  UNL1       -0.0231
     25 C           5.2510   -1.4185   -1.0141 C.ar    1  UNL1       -0.0459
     26 C           5.2099   -0.2236   -0.2464 C.ar    1  UNL1        0.0040
     27 C           2.1964   -0.8600    0.8710 C.ar    1  UNL1        0.1087
     28 N           2.8777   -1.8973    1.3919 N.ar    1  UNL1       -0.1901
     29 S           1.7704   -2.9802    1.9492 S.2     1  UNL1        0.1165
     30 N           0.3743   -2.2188    1.5254 N.ar    1  UNL1       -0.1901
     31 C           0.6795   -1.0690    0.9000 C.ar    1  UNL1        0.1088
     32 C          -0.2665   -0.0958    0.3702 C.ar    1  UNL1        0.0195
     33 C          -4.0421    0.9111   -0.0192 C.ar    1  UNL1        0.1438
     34 O          -4.9280    1.9376   -0.2461 O.2     1  UNL1       -0.4623
     35 H          -6.9913    2.1266   -0.2894 H       1  UNL1        0.1030
     36 H          -7.0010   -0.5892    0.2815 H       1  UNL1        0.0655
     37 H          -5.5824   -3.0589    0.6270 H       1  UNL1        0.0813
     38 H          -3.4781   -4.4641    0.7153 H       1  UNL1        0.1648
     39 H          -1.3830   -3.2122    0.4096 H       1  UNL1        0.0813
     40 H          -3.3109    3.7471   -0.8655 H       1  UNL1        0.1036
     41 H           0.7712    3.9790   -0.9183 H       1  UNL1        0.1036
     42 H           2.2650    2.2500   -0.4242 H       1  UNL1        0.0631
     43 H           7.4158    1.9821    0.9083 H       1  UNL1        0.0705
     44 H           6.8450   -2.6468   -1.9565 H       1  UNL1        0.0694
     45 H           4.3863   -2.0086   -1.2920 H       1  UNL1        0.0629
@<TRIPOS>BOND
     1     1     2   ar
     2     2     3   ar
     3     3     4   ar
     4     4     5   ar
     5     5     6   ar
     6     6     7   ar
     7     7     8   ar
     8     8     9   ar
     9     9    10   ar
    10    10    11   ar
    11    11    12   ar
    12    12    13   ar
    13    13    14   ar
    14    14    15   ar
    15    15    16   ar
    16    16    17   ar
    17    17    18   ar
    18    18    19    1
    19    19    20   ar
    20    20    21   ar
    21    21    22   ar
    22    22    23   ar
    23    23    24   ar
    24    24    25   ar
    25    25    26   ar
    26    18    27   ar
    27    27    28   ar
    28    28    29   ar
    29    29    30   ar
    30    30    31   ar
    31    31    32   ar
    32    10    33   ar
    33    33    34   ar
    34    34     1   ar
    35    33     3   ar
    36     8     4   ar
    37    32     9   ar
    38    15    11   ar
    39    32    16   ar
    40    26    19   ar
    41    31    27   ar
    42    26    22   ar
    43     1    35    1
    44     2    36    1
    45     5    37    1
    46     6    38    1
    47     7    39    1
    48    12    40    1
    49    14    41    1
    50    17    42    1
    51    21    43    1
    52    24    44    1
    53    25    45    1
