@<TRIPOS>MOLECULE
*****
 43 49 0 0 0
SMALL
GASTEIGER

@<TRIPOS>ATOM
      1 C           6.1995   -2.0323    1.4780 C.ar    1  UNL1       -0.0231
      2 C           6.0710   -1.0867    0.4856 C.ar    1  UNL1       -0.0463
      3 C           4.7114   -0.7957    0.2885 C.ar    1  UNL1       -0.0010
      4 C           4.1789    0.0906   -0.6849 C.ar    1  UNL1        0.0082
      5 C           4.8460    0.7772   -1.6553 C.ar    1  UNL1        0.0100
      6 N           3.8533    1.3661   -2.4036 N.ar    1  UNL1       -0.3659
      7 C           2.6112    1.0248   -1.8947 C.ar    1  UNL1        0.0100
      8 C           2.7863    0.2841   -0.7437 C.ar    1  UNL1        0.0084
      9 C           1.7691   -0.2873    0.0787 C.ar    1  UNL1        0.0036
     10 C           2.3593   -1.2584    0.9401 C.ar    1  UNL1        0.0158
     11 C           1.4848   -2.0530    1.6808 C.ar    1  UNL1        0.0371
     12 N           0.1324   -1.9831    1.6370 N.ar    1  UNL1       -0.2543
     13 C          -0.4517   -1.0271    0.9088 C.ar    1  UNL1        0.0729
     14 C          -1.8716   -1.0111    0.9603 C.ar    1  UNL1       -0.0259
     15 C          -2.7402   -0.0719    0.3428 C.ar    1  UNL1        0.0115
     16 C          -4.1942   -0.1274    0.4258 C.ar    1  UNL1        0.0717
     17 C          -5.0214    0.0652   -0.6805 C.ar    1  UNL1       -0.0357
     18 C          -6.4029   -0.0282   -0.5243 C.ar    1  UNL1       -0.0583
     19 C          -6.9267   -0.3194    0.7277 C.ar    1  UNL1       -0.0436
     20 C          -6.0421   -0.5121    1.7736 C.ar    1  UNL1        0.0283
     21 N          -4.6995   -0.4288    1.6489 N.ar    1  UNL1       -0.2550
     22 C          -1.9766    0.9213   -0.2714 C.ar    1  UNL1        0.0093
     23 C          -2.4396    2.1016   -0.8048 C.ar    1  UNL1        0.0101
     24 N          -1.3422    2.8455   -1.1653 N.ar    1  UNL1       -0.3659
     25 C          -0.1893    2.1644   -0.8469 C.ar    1  UNL1        0.0101
     26 C          -0.5429    0.9277   -0.3599 C.ar    1  UNL1        0.0098
     27 C           0.3246   -0.0896    0.1510 C.ar    1  UNL1        0.0179
     28 C           3.7853   -1.4721    1.0659 C.ar    1  UNL1        0.0291
     29 S           4.6854   -2.5390    2.1071 S.2     1  UNL1       -0.0960
     30 H           7.1118   -2.4649    1.8650 H       1  UNL1        0.0694
     31 H           6.9085   -0.6543   -0.0456 H       1  UNL1        0.0629
     32 H           5.8890    0.8733   -1.9222 H       1  UNL1        0.0813
     33 H           4.0032    1.9118   -3.2425 H       1  UNL1        0.1648
     34 H           1.7287    1.3226   -2.4405 H       1  UNL1        0.0813
     35 H           1.8443   -2.8321    2.3486 H       1  UNL1        0.0836
     36 H          -2.3424   -1.8030    1.5499 H       1  UNL1        0.0646
     37 H          -4.5999    0.2692   -1.6595 H       1  UNL1        0.0639
     38 H          -7.0612    0.1179   -1.3756 H       1  UNL1        0.0619
     39 H          -7.9960   -0.4015    0.8845 H       1  UNL1        0.0633
     40 H          -6.3978   -0.7484    2.7723 H       1  UNL1        0.0830
     41 H          -3.4333    2.5156   -0.9098 H       1  UNL1        0.0813
     42 H          -1.3755    3.7880   -1.5322 H       1  UNL1        0.1648
     43 H           0.7632    2.6603   -0.9574 H       1  UNL1        0.0813
@<TRIPOS>BOND
     1     1     2   ar
     2     2     3   ar
     3     3     4   ar
     4     4     5   ar
     5     5     6   ar
     6     6     7   ar
     7     7     8   ar
     8     8     9   ar
     9     9    10   ar
    10    10    11   ar
    11    11    12   ar
    12    12    13   ar
    13    13    14   ar
    14    14    15   ar
    15    15    16    1
    16    16    17   ar
    17    17    18   ar
    18    18    19   ar
    19    19    20   ar
    20    20    21   ar
    21    15    22   ar
    22    22    23   ar
    23    23    24   ar
    24    24    25   ar
    25    25    26   ar
    26    26    27   ar
    27    10    28   ar
    28    28    29   ar
    29    29     1   ar
    30    28     3   ar
    31     8     4   ar
    32    27     9   ar
    33    27    13   ar
    34    21    16   ar
    35    26    22   ar
    36     1    30    1
    37     2    31    1
    38     5    32    1
    39     6    33    1
    40     7    34    1
    41    11    35    1
    42    14    36    1
    43    17    37    1
    44    18    38    1
    45    19    39    1
    46    20    40    1
    47    23    41    1
    48    24    42    1
    49    25    43    1
