@<TRIPOS>MOLECULE
*****
 40 46 0 0 0
SMALL
GASTEIGER

@<TRIPOS>ATOM
      1 C           5.2403    3.0513    0.0452 C.ar    1  UNL1        0.0933
      2 C           5.6846    1.7395    0.0606 C.ar    1  UNL1       -0.0154
      3 C           4.5108    0.9971    0.0662 C.ar    1  UNL1        0.0330
      4 C           4.2299   -0.3878    0.0940 C.ar    1  UNL1        0.0110
      5 C           5.1490   -1.3970    0.1369 C.ar    1  UNL1        0.0101
      6 N           4.4108   -2.5645    0.1845 N.ar    1  UNL1       -0.3659
      7 C           3.0498   -2.2815    0.1767 C.ar    1  UNL1        0.0101
      8 C           2.9291   -0.9219    0.0994 C.ar    1  UNL1        0.0116
      9 C           1.7568   -0.1004    0.0657 C.ar    1  UNL1        0.0414
     10 C           1.9927    1.2647    0.0621 C.ar    1  UNL1        0.1795
     11 O           0.8188    1.9551    0.0696 O.2     1  UNL1       -0.4510
     12 C          -0.1820    1.0160    0.0643 C.ar    1  UNL1        0.1378
     13 C          -1.5622    1.3139    0.0751 C.ar    1  UNL1       -0.0088
     14 C          -2.5279    0.2773    0.0694 C.ar    1  UNL1        0.0146
     15 C          -3.9639    0.5320    0.1025 C.ar    1  UNL1        0.0718
     16 C          -4.8180   -0.0760    1.0219 C.ar    1  UNL1       -0.0357
     17 C          -6.1755    0.2366    0.9980 C.ar    1  UNL1       -0.0583
     18 C          -6.6458    1.1515    0.0657 C.ar    1  UNL1       -0.0436
     19 C          -5.7333    1.7230   -0.8031 C.ar    1  UNL1        0.0283
     20 N          -4.4123    1.4392   -0.8004 N.ar    1  UNL1       -0.2550
     21 C          -1.9298   -0.9897    0.0026 C.ar    1  UNL1        0.0298
     22 C          -2.5747   -2.2011   -0.1159 C.ar    1  UNL1        0.1000
     23 O          -1.6676   -3.2235   -0.1883 O.2     1  UNL1       -0.4698
     24 C          -0.4145   -2.6685   -0.1387 C.ar    1  UNL1        0.1001
     25 C          -0.5530   -1.3223   -0.0183 C.ar    1  UNL1        0.0318
     26 C           0.3849   -0.2556    0.0419 C.ar    1  UNL1        0.0394
     27 C           3.4283    1.8334    0.0564 C.ar    1  UNL1        0.1780
     28 O           3.8702    3.1207    0.0443 O.2     1  UNL1       -0.4592
     29 H           5.7440    4.0082    0.0358 H       1  UNL1        0.1030
     30 H           6.7115    1.4066    0.0682 H       1  UNL1        0.0655
     31 H           6.2300   -1.4181    0.1491 H       1  UNL1        0.0813
     32 H           4.8044   -3.4956    0.2357 H       1  UNL1        0.1648
     33 H           2.3536   -3.0977    0.2454 H       1  UNL1        0.0813
     34 H          -1.8818    2.3535    0.0910 H       1  UNL1        0.0661
     35 H          -4.4368   -0.7728    1.7618 H       1  UNL1        0.0639
     36 H          -6.8569   -0.2260    1.7063 H       1  UNL1        0.0619
     37 H          -7.6956    1.4184    0.0206 H       1  UNL1        0.0633
     38 H          -6.0475    2.4488   -1.5478 H       1  UNL1        0.0830
     39 H          -3.6092   -2.5095   -0.1784 H       1  UNL1        0.1036
     40 H           0.3891   -3.3775   -0.2272 H       1  UNL1        0.1036
@<TRIPOS>BOND
     1     1     2   ar
     2     2     3   ar
     3     3     4   ar
     4     4     5   ar
     5     5     6   ar
     6     6     7   ar
     7     7     8   ar
     8     8     9   ar
     9     9    10   ar
    10    10    11   ar
    11    11    12   ar
    12    12    13   ar
    13    13    14   ar
    14    14    15    1
    15    15    16   ar
    16    16    17   ar
    17    17    18   ar
    18    18    19   ar
    19    19    20   ar
    20    14    21   ar
    21    21    22   ar
    22    22    23   ar
    23    23    24   ar
    24    24    25   ar
    25    25    26   ar
    26    10    27   ar
    27    27    28   ar
    28    28     1   ar
    29    27     3   ar
    30     8     4   ar
    31    26     9   ar
    32    26    12   ar
    33    20    15   ar
    34    25    21   ar
    35     1    29    1
    36     2    30    1
    37     5    31    1
    38     6    32    1
    39     7    33    1
    40    13    34    1
    41    16    35    1
    42    17    36    1
    43    18    37    1
    44    19    38    1
    45    22    39    1
    46    24    40    1
