@<TRIPOS>MOLECULE
*****
 43 50 0 0 0
SMALL
GASTEIGER

@<TRIPOS>ATOM
      1 C          -6.2613    0.5569    0.1098 C.ar    1  UNL1       -0.0231
      2 C          -5.3853    1.0709    1.0337 C.ar    1  UNL1       -0.0463
      3 C          -4.0673    0.7387    0.6695 C.ar    1  UNL1       -0.0011
      4 C          -2.9130    1.1174    1.4130 C.ar    1  UNL1        0.0083
      5 C          -2.8533    1.8403    2.5675 C.ar    1  UNL1        0.0100
      6 N          -1.5128    1.9189    2.8578 N.ar    1  UNL1       -0.3659
      7 C          -0.7759    1.2518    1.8903 C.ar    1  UNL1        0.0101
      8 C          -1.6453    0.7284    0.9524 C.ar    1  UNL1        0.0097
      9 C          -1.3525   -0.0201   -0.1990 C.ar    1  UNL1        0.0168
     10 C          -0.0546   -0.3962   -0.6354 C.ar    1  UNL1        0.0560
     11 N           1.2174   -0.1866   -0.1456 N.ar    1  UNL1       -0.3532
     12 C           2.1853   -0.7674   -0.9476 C.ar    1  UNL1        0.0563
     13 C           1.5310   -1.3801   -2.0007 C.ar    1  UNL1       -0.0275
     14 C           0.1734   -1.1356   -1.7804 C.ar    1  UNL1        0.0091
     15 C          -0.9473   -1.5370   -2.5560 C.ar    1  UNL1       -0.0011
     16 C          -0.8454   -2.2683   -3.7036 C.ar    1  UNL1       -0.0160
     17 S          -2.4188   -2.5365   -4.3238 S.2     1  UNL1       -0.1038
     18 C          -3.1504   -1.6602   -3.0238 C.ar    1  UNL1       -0.0160
     19 C          -2.2465   -1.1543   -2.1092 C.ar    1  UNL1       -0.0014
     20 C          -2.5549   -0.3969   -0.9455 C.ar    1  UNL1        0.0073
     21 C          -3.8684   -0.0080   -0.4908 C.ar    1  UNL1        0.0283
     22 S          -5.4624   -0.2920   -1.1385 S.2     1  UNL1       -0.0960
     23 C           3.5866   -0.6719   -0.6229 C.ar    1  UNL1        0.0629
     24 S           4.7952   -1.3954   -1.6216 S.2     1  UNL1       -0.0909
     25 C           6.0801   -0.8643   -0.6200 C.ar    1  UNL1        0.0038
     26 C           5.6123   -0.1520    0.4524 C.ar    1  UNL1        0.0968
     27 N           6.4330    0.3809    1.3994 N.ar    1  UNL1       -0.2514
     28 C           5.7113    1.0353    2.3486 C.ar    1  UNL1        0.0464
     29 C           4.3156    1.1524    2.3620 C.ar    1  UNL1        0.0464
     30 N           3.4693    0.6303    1.4289 N.ar    1  UNL1       -0.2507
     31 C           4.1726   -0.0365    0.4577 C.ar    1  UNL1        0.1053
     32 H          -7.3396    0.6373    0.1041 H       1  UNL1        0.0694
     33 H          -5.6932    1.6409    1.9001 H       1  UNL1        0.0629
     34 H          -3.5980    2.2987    3.2027 H       1  UNL1        0.0813
     35 H          -1.1179    2.3933    3.6595 H       1  UNL1        0.1648
     36 H           0.2956    1.2377    2.0004 H       1  UNL1        0.0813
     37 H           1.4527    0.3234    0.6927 H       1  UNL1        0.1659
     38 H           1.9915   -1.9271   -2.8118 H       1  UNL1        0.0645
     39 H           0.0268   -2.6555   -4.2104 H       1  UNL1        0.0700
     40 H          -4.2236   -1.5982   -3.0579 H       1  UNL1        0.0700
     41 H           7.1063   -1.0976   -0.8634 H       1  UNL1        0.0715
     42 H           6.3040    1.4874    3.1393 H       1  UNL1        0.0845
     43 H           3.8276    1.6970    3.1658 H       1  UNL1        0.0845
@<TRIPOS>BOND
     1     1     2   ar
     2     2     3   ar
     3     3     4   ar
     4     4     5   ar
     5     5     6   ar
     6     6     7   ar
     7     7     8   ar
     8     8     9   ar
     9     9    10   ar
    10    10    11   ar
    11    11    12   ar
    12    12    13   ar
    13    13    14   ar
    14    14    15   ar
    15    15    16   ar
    16    16    17   ar
    17    17    18   ar
    18    18    19   ar
    19    19    20   ar
    20    20    21   ar
    21    21    22   ar
    22    12    23    1
    23    23    24   ar
    24    24    25   ar
    25    25    26   ar
    26    26    27   ar
    27    27    28   ar
    28    28    29   ar
    29    29    30   ar
    30    30    31   ar
    31    22     1   ar
    32    31    23   ar
    33    21     3   ar
    34    31    26   ar
    35     8     4   ar
    36    20     9   ar
    37    14    10   ar
    38    19    15   ar
    39     1    32    1
    40     2    33    1
    41     5    34    1
    42     6    35    1
    43     7    36    1
    44    11    37    1
    45    13    38    1
    46    16    39    1
    47    18    40    1
    48    25    41    1
    49    28    42    1
    50    29    43    1
