@<TRIPOS>MOLECULE
*****
 41 48 0 0 0
SMALL
GASTEIGER

@<TRIPOS>ATOM
      1 C          -5.7410    0.3822    1.7356 C.ar    1  UNL1        0.0028
      2 C          -5.5713   -0.6236    0.8038 C.ar    1  UNL1       -0.0360
      3 C          -4.2178   -0.5787    0.4807 C.ar    1  UNL1        0.0095
      4 C          -3.4591   -1.3688   -0.4191 C.ar    1  UNL1        0.0092
      5 C          -3.8727   -2.3942   -1.2123 C.ar    1  UNL1        0.0101
      6 N          -2.7347   -2.7977   -1.8730 N.ar    1  UNL1       -0.3659
      7 C          -1.6476   -2.0244   -1.4822 C.ar    1  UNL1        0.0101
      8 C          -2.0795   -1.1002   -0.5522 C.ar    1  UNL1        0.0098
      9 C          -1.3393   -0.1122    0.1205 C.ar    1  UNL1        0.0193
     10 C           0.0350    0.1713    0.0019 C.ar    1  UNL1        0.0576
     11 N           1.0564   -0.3673   -0.7518 N.ar    1  UNL1       -0.3532
     12 C           2.2652    0.2653   -0.5090 C.ar    1  UNL1        0.0548
     13 C           2.0262    1.2585    0.4238 C.ar    1  UNL1       -0.0260
     14 C           0.6624    1.1739    0.7177 C.ar    1  UNL1        0.0291
     15 C          -0.0845    1.9821    1.6288 C.ar    1  UNL1        0.1097
     16 N           0.4685    2.9543    2.3382 N.ar    1  UNL1       -0.1901
     17 S          -0.8335    3.5475    3.2081 S.2     1  UNL1        0.1165
     18 N          -2.0605    2.5478    2.6571 N.ar    1  UNL1       -0.1901
     19 C          -1.5039    1.6990    1.7601 C.ar    1  UNL1        0.1103
     20 C          -2.1561    0.6689    1.0277 C.ar    1  UNL1        0.0368
     21 C          -3.5446    0.4107    1.1724 C.ar    1  UNL1        0.0571
     22 N          -4.5243    0.9966    1.9509 N.ar    1  UNL1       -0.3601
     23 C           3.4812   -0.1209   -1.1699 C.ar    1  UNL1        0.0437
     24 S           3.4672   -1.0686   -2.6217 S.2     1  UNL1       -0.0935
     25 C           5.1802   -1.0752   -2.7665 C.ar    1  UNL1       -0.0094
     26 C           5.7458   -0.3874   -1.7330 C.ar    1  UNL1        0.0270
     27 S           7.4768   -0.0704   -1.3479 S.2     1  UNL1       -0.0961
     28 C           6.8494    0.7785    0.0549 C.ar    1  UNL1       -0.0231
     29 C           5.4564    0.8061    0.1911 C.ar    1  UNL1       -0.0458
     30 C           4.7816    0.1286   -0.8641 C.ar    1  UNL1        0.0054
     31 H          -6.6204    0.7188    2.2678 H       1  UNL1        0.0807
     32 H          -6.3379   -1.2854    0.4259 H       1  UNL1        0.0639
     33 H          -4.8286   -2.8713   -1.3767 H       1  UNL1        0.0813
     34 H          -2.6940   -3.5506   -2.5478 H       1  UNL1        0.1648
     35 H          -0.6895   -2.2379   -1.9269 H       1  UNL1        0.0813
     36 H           0.9553   -1.1292   -1.4034 H       1  UNL1        0.1659
     37 H           2.7412    1.9602    0.8301 H       1  UNL1        0.0646
     38 H          -4.3499    1.7681    2.5838 H       1  UNL1        0.1654
     39 H           5.6946   -1.5718   -3.5776 H       1  UNL1        0.0705
     40 H           7.5721    1.2226    0.7260 H       1  UNL1        0.0694
     41 H           4.9754    1.2950    1.0284 H       1  UNL1        0.0629
@<TRIPOS>BOND
     1     1     2   ar
     2     2     3   ar
     3     3     4   ar
     4     4     5   ar
     5     5     6   ar
     6     6     7   ar
     7     7     8   ar
     8     8     9   ar
     9     9    10   ar
    10    10    11   ar
    11    11    12   ar
    12    12    13   ar
    13    13    14   ar
    14    14    15   ar
    15    15    16   ar
    16    16    17   ar
    17    17    18   ar
    18    18    19   ar
    19    19    20   ar
    20    20    21   ar
    21    21    22   ar
    22    12    23    1
    23    23    24   ar
    24    24    25   ar
    25    25    26   ar
    26    26    27   ar
    27    27    28   ar
    28    28    29   ar
    29    29    30   ar
    30    22     1   ar
    31    30    23   ar
    32    21     3   ar
    33    30    26   ar
    34     8     4   ar
    35    20     9   ar
    36    14    10   ar
    37    19    15   ar
    38     1    31    1
    39     2    32    1
    40     5    33    1
    41     6    34    1
    42     7    35    1
    43    11    36    1
    44    13    37    1
    45    22    38    1
    46    25    39    1
    47    28    40    1
    48    29    41    1
