@<TRIPOS>MOLECULE
*****
 40 46 0 0 0
SMALL
GASTEIGER

@<TRIPOS>ATOM
      1 C           5.4825   -1.5287   -0.2031 C.ar    1  UNL1        0.0932
      2 C           5.5169   -0.1509   -0.1215 C.ar    1  UNL1       -0.0155
      3 C           4.1739    0.2029   -0.0870 C.ar    1  UNL1        0.0299
      4 C           3.5200    1.4442   -0.0067 C.ar    1  UNL1        0.0108
      5 C           4.0954    2.6752    0.0607 C.ar    1  UNL1        0.0101
      6 N           3.0316    3.5403    0.1228 N.ar    1  UNL1       -0.3659
      7 C           1.8347    2.8328    0.0927 C.ar    1  UNL1        0.0100
      8 C           2.1023    1.4795    0.0096 C.ar    1  UNL1        0.0085
      9 C           1.1703    0.3767   -0.0466 C.ar    1  UNL1        0.0046
     10 C          -0.3404    0.3673   -0.0320 C.ar    1  UNL1        0.0094
     11 C          -1.1772    1.4882    0.0430 C.ar    1  UNL1        0.0367
     12 N          -2.5419    1.5045    0.0576 N.ar    1  UNL1       -0.2512
     13 C          -3.2137    0.3278   -0.0056 C.ar    1  UNL1        0.1085
     14 C          -2.5151   -0.8683   -0.0837 C.ar    1  UNL1       -0.0242
     15 C          -1.1010   -0.8411   -0.0962 C.ar    1  UNL1       -0.0030
     16 C          -0.2833   -1.9865   -0.1725 C.ar    1  UNL1        0.0284
     17 C          -0.6827   -3.2981   -0.2465 C.ar    1  UNL1        0.1000
     18 O           0.4099   -4.1130   -0.3059 O.2     1  UNL1       -0.4698
     19 C           1.5151   -3.3122   -0.2693 C.ar    1  UNL1        0.1001
     20 C           1.1391   -1.9937   -0.1872 C.ar    1  UNL1        0.0317
     21 C           1.9541   -0.8606   -0.1280 C.ar    1  UNL1        0.0370
     22 C           3.3651   -0.9044   -0.1447 C.ar    1  UNL1        0.1438
     23 O           4.1966   -1.9963   -0.2180 O.2     1  UNL1       -0.4623
     24 C          -4.6991    0.3781    0.0123 C.ar    1  UNL1        0.1812
     25 N          -5.2935    1.5767    0.0895 N.ar    1  UNL1       -0.2145
     26 C          -6.6213    1.5475    0.1010 C.ar    1  UNL1        0.1201
     27 N          -7.3807    0.4572    0.0438 N.ar    1  UNL1       -0.2241
     28 C          -6.6891   -0.6755   -0.0304 C.ar    1  UNL1        0.1201
     29 N          -5.3630   -0.7876   -0.0504 N.ar    1  UNL1       -0.2145
     30 H           6.2474   -2.2913   -0.2560 H       1  UNL1        0.1030
     31 H           6.3963    0.4746   -0.0931 H       1  UNL1        0.0655
     32 H           5.1184    3.0248    0.0712 H       1  UNL1        0.0813
     33 H           3.1022    4.5484    0.1820 H       1  UNL1        0.1648
     34 H           0.9323    3.4177    0.1365 H       1  UNL1        0.0813
     35 H          -0.7815    2.4905    0.0986 H       1  UNL1        0.0836
     36 H          -3.0529   -1.8093   -0.1342 H       1  UNL1        0.0646
     37 H          -1.6352   -3.8082   -0.2672 H       1  UNL1        0.1036
     38 H           2.4604   -3.8352   -0.3099 H       1  UNL1        0.1036
     39 H          -7.1322    2.5023    0.1629 H       1  UNL1        0.1048
     40 H          -7.2607   -1.5963   -0.0795 H       1  UNL1        0.1048
@<TRIPOS>BOND
     1     1     2   ar
     2     2     3   ar
     3     3     4   ar
     4     4     5   ar
     5     5     6   ar
     6     6     7   ar
     7     7     8   ar
     8     8     9   ar
     9     9    10   ar
    10    10    11   ar
    11    11    12   ar
    12    12    13   ar
    13    13    14   ar
    14    14    15   ar
    15    15    16   ar
    16    16    17   ar
    17    17    18   ar
    18    18    19   ar
    19    19    20   ar
    20    20    21   ar
    21    21    22   ar
    22    22    23   ar
    23    13    24    1
    24    24    25   ar
    25    25    26   ar
    26    26    27   ar
    27    27    28   ar
    28    28    29   ar
    29    23     1   ar
    30    29    24   ar
    31    22     3   ar
    32     8     4   ar
    33    21     9   ar
    34    15    10   ar
    35    20    16   ar
    36     1    30    1
    37     2    31    1
    38     5    32    1
    39     6    33    1
    40     7    34    1
    41    11    35    1
    42    14    36    1
    43    17    37    1
    44    19    38    1
    45    26    39    1
    46    28    40    1
