@<TRIPOS>MOLECULE
*****
 38 43 0 0 0
SMALL
GASTEIGER

@<TRIPOS>ATOM
      1 C          -5.0167    1.4393   -1.3541 C.ar    1  UNL1        0.0028
      2 C          -5.2117    0.5758   -0.2950 C.ar    1  UNL1       -0.0360
      3 C          -3.9305    0.1702    0.0643 C.ar    1  UNL1        0.0094
      4 C          -3.5053   -0.7148    1.0876 C.ar    1  UNL1        0.0091
      5 C          -4.2333   -1.4123    2.0022 C.ar    1  UNL1        0.0101
      6 N          -3.2938   -2.1027    2.7410 N.ar    1  UNL1       -0.3659
      7 C          -2.0155   -1.8264    2.2775 C.ar    1  UNL1        0.0100
      8 C          -2.1269   -0.9439    1.2243 C.ar    1  UNL1        0.0079
      9 C          -1.0742   -0.3931    0.4544 C.ar    1  UNL1       -0.0033
     10 C           0.3072   -0.6279    0.5955 C.ar    1  UNL1       -0.0273
     11 C           1.1877    0.0211   -0.2673 C.ar    1  UNL1        0.0722
     12 N           0.7604    0.8680   -1.2410 N.ar    1  UNL1       -0.2543
     13 C          -0.5734    1.0807   -1.3653 C.ar    1  UNL1        0.0380
     14 C          -1.5439    0.4882   -0.5576 C.ar    1  UNL1        0.0248
     15 C          -2.9477    0.7453   -0.7265 C.ar    1  UNL1        0.0564
     16 N          -3.6623    1.5362   -1.6070 N.ar    1  UNL1       -0.3601
     17 C           2.6301   -0.1970   -0.1911 C.ar    1  UNL1        0.0086
     18 C           3.2355   -1.4863   -0.1611 C.ar    1  UNL1       -0.0519
     19 C           4.6464   -1.7251   -0.0806 C.ar    1  UNL1       -0.0605
     20 C           5.6123   -0.7017   -0.0173 C.ar    1  UNL1       -0.0535
     21 C           5.0275    0.5636   -0.0439 C.ar    1  UNL1       -0.0102
     22 C           5.7758    1.7135    0.0146 C.ar    1  UNL1       -0.0166
     23 S           4.7758    3.1093   -0.0211 S.2     1  UNL1       -0.1039
     24 C           3.3399    2.1684   -0.1160 C.ar    1  UNL1       -0.0160
     25 C           3.6067    0.8178   -0.1293 C.ar    1  UNL1       -0.0017
     26 H          -5.7225    1.9973   -1.9549 H       1  UNL1        0.0807
     27 H          -6.1603    0.2937    0.1402 H       1  UNL1        0.0639
     28 H          -5.2910   -1.4941    2.2085 H       1  UNL1        0.0813
     29 H          -3.5059   -2.7222    3.5122 H       1  UNL1        0.1648
     30 H          -1.1617   -2.2896    2.7521 H       1  UNL1        0.0813
     31 H           0.6778   -1.2929    1.3671 H       1  UNL1        0.0645
     32 H          -0.8360    1.7664   -2.1646 H       1  UNL1        0.0836
     33 H          -3.2542    2.1063   -2.3346 H       1  UNL1        0.1654
     34 H           2.5883   -2.3635   -0.2202 H       1  UNL1        0.0624
     35 H           4.9891   -2.7604   -0.0728 H       1  UNL1        0.0618
     36 H           6.6740   -0.8996    0.0431 H       1  UNL1        0.0624
     37 H           6.8494    1.8223    0.0794 H       1  UNL1        0.0699
     38 H           2.3831    2.6702   -0.1635 H       1  UNL1        0.0700
@<TRIPOS>BOND
     1     1     2   ar
     2     2     3   ar
     3     3     4   ar
     4     4     5   ar
     5     5     6   ar
     6     6     7   ar
     7     7     8   ar
     8     8     9   ar
     9     9    10   ar
    10    10    11   ar
    11    11    12   ar
    12    12    13   ar
    13    13    14   ar
    14    14    15   ar
    15    15    16   ar
    16    11    17    1
    17    17    18   ar
    18    18    19   ar
    19    19    20   ar
    20    20    21   ar
    21    21    22   ar
    22    22    23   ar
    23    23    24   ar
    24    24    25   ar
    25    16     1   ar
    26    25    17   ar
    27    15     3   ar
    28    25    21   ar
    29     8     4   ar
    30    14     9   ar
    31     1    26    1
    32     2    27    1
    33     5    28    1
    34     6    29    1
    35     7    30    1
    36    10    31    1
    37    13    32    1
    38    16    33    1
    39    18    34    1
    40    19    35    1
    41    20    36    1
    42    22    37    1
    43    24    38    1
