@<TRIPOS>MOLECULE
*****
 43 49 0 0 0
SMALL
GASTEIGER

@<TRIPOS>ATOM
      1 C          -5.1027   -2.1410    1.7664 C.ar    1  UNL1        0.0028
      2 C          -5.7393   -1.3036    0.8734 C.ar    1  UNL1       -0.0360
      3 C          -4.7097   -0.5781    0.2815 C.ar    1  UNL1        0.0094
      4 C          -4.7617    0.4306   -0.7120 C.ar    1  UNL1        0.0091
      5 C          -5.8318    0.9672   -1.3606 C.ar    1  UNL1        0.0101
      6 N          -5.2854    1.9032   -2.2146 N.ar    1  UNL1       -0.3659
      7 C          -3.9051    1.9307   -2.0823 C.ar    1  UNL1        0.0100
      8 C          -3.5490    0.9995   -1.1293 C.ar    1  UNL1        0.0078
      9 C          -2.2430    0.6912   -0.6774 C.ar    1  UNL1       -0.0061
     10 C          -1.0394    1.2889   -1.1228 C.ar    1  UNL1       -0.0442
     11 C           0.1797    0.8605   -0.5649 C.ar    1  UNL1        0.0009
     12 C           1.5375    1.2337   -0.7668 C.ar    1  UNL1       -0.0286
     13 C           2.3339    0.4574    0.0543 C.ar    1  UNL1        0.0482
     14 N           1.4815   -0.3494    0.7729 N.ar    1  UNL1       -0.3541
     15 C           0.1709   -0.1367    0.4080 C.ar    1  UNL1        0.0476
     16 C          -1.0028   -0.7495    0.8755 C.ar    1  UNL1       -0.0281
     17 C          -2.2298   -0.3296    0.3231 C.ar    1  UNL1        0.0086
     18 C          -3.4592   -0.9274    0.7672 C.ar    1  UNL1        0.0550
     19 N          -3.7430   -1.9110    1.6974 N.ar    1  UNL1       -0.3601
     20 C           3.7684    0.4616    0.2447 C.ar    1  UNL1        0.0090
     21 C           4.5508    1.6328    0.3975 C.ar    1  UNL1       -0.0519
     22 C           5.9777    1.6304    0.6060 C.ar    1  UNL1       -0.0604
     23 C           6.7724    0.4620    0.6762 C.ar    1  UNL1       -0.0510
     24 C           5.9833   -0.6676    0.5073 C.ar    1  UNL1        0.0205
     25 C           6.4042   -1.9699    0.4921 C.ar    1  UNL1        0.0994
     26 O           5.3321   -2.7913    0.2714 O.2     1  UNL1       -0.4698
     27 C           4.2231   -1.9986    0.1414 C.ar    1  UNL1        0.1000
     28 C           4.5702   -0.6811    0.3028 C.ar    1  UNL1        0.0289
     29 H          -5.4946   -2.8837    2.4482 H       1  UNL1        0.0807
     30 H          -6.8031   -1.2430    0.6918 H       1  UNL1        0.0639
     31 H          -6.8972    0.7932   -1.3131 H       1  UNL1        0.0813
     32 H          -5.8148    2.4874   -2.8483 H       1  UNL1        0.1648
     33 H          -3.3217    2.6134   -2.6841 H       1  UNL1        0.0813
     34 H          -1.0489    2.0642   -1.8807 H       1  UNL1        0.0630
     35 H           1.8946    1.9877   -1.4564 H       1  UNL1        0.0645
     36 H           1.7756   -1.0002    1.4869 H       1  UNL1        0.1659
     37 H          -0.9504   -1.5189    1.6365 H       1  UNL1        0.0645
     38 H          -3.0492   -2.3937    2.2494 H       1  UNL1        0.1654
     39 H           4.0497    2.6015    0.3695 H       1  UNL1        0.0624
     40 H           6.4728    2.5965    0.7164 H       1  UNL1        0.0618
     41 H           7.8420    0.4743    0.8286 H       1  UNL1        0.0625
     42 H           7.3574   -2.4671    0.6015 H       1  UNL1        0.1035
     43 H           3.3040   -2.5268   -0.0683 H       1  UNL1        0.1036
@<TRIPOS>BOND
     1     1     2   ar
     2     2     3   ar
     3     3     4   ar
     4     4     5   ar
     5     5     6   ar
     6     6     7   ar
     7     7     8   ar
     8     8     9   ar
     9     9    10   ar
    10    10    11   ar
    11    11    12   ar
    12    12    13   ar
    13    13    14   ar
    14    14    15   ar
    15    15    16   ar
    16    16    17   ar
    17    17    18   ar
    18    18    19   ar
    19    13    20    1
    20    20    21   ar
    21    21    22   ar
    22    22    23   ar
    23    23    24   ar
    24    24    25   ar
    25    25    26   ar
    26    26    27   ar
    27    27    28   ar
    28    19     1   ar
    29    28    20   ar
    30    18     3   ar
    31    28    24   ar
    32     8     4   ar
    33    17     9   ar
    34    15    11   ar
    35     1    29    1
    36     2    30    1
    37     5    31    1
    38     6    32    1
    39     7    33    1
    40    10    34    1
    41    12    35    1
    42    14    36    1
    43    16    37    1
    44    19    38    1
    45    21    39    1
    46    22    40    1
    47    23    41    1
    48    25    42    1
    49    27    43    1
