@<TRIPOS>MOLECULE
*****
 30 35 0 0 0
SMALL
GASTEIGER

@<TRIPOS>ATOM
      1 C          -0.0094   -3.5691    0.2867 C.3     1  UNL1       -0.0148
      2 C           1.1079   -2.5791    0.1630 C.2     1  UNL1       -0.0718
      3 C           0.6010   -1.3416    0.0838 C.ar    1  UNL1       -0.0094
      4 C           1.2378   -0.0844   -0.0423 C.ar    1  UNL1        0.0401
      5 C           2.6069    0.2077   -0.1201 C.ar    1  UNL1        0.1501
      6 O           3.7459   -0.5445   -0.1050 O.2     1  UNL1       -0.4617
      7 C           4.7613    0.3535   -0.2173 C.ar    1  UNL1        0.0937
      8 C           4.3188    1.6501   -0.3038 C.ar    1  UNL1       -0.0095
      9 C           2.9090    1.5235   -0.2376 C.ar    1  UNL1        0.0585
     10 S           1.4717    2.4900   -0.2581 S.2     1  UNL1       -0.0843
     11 C           0.4827    1.0823   -0.1059 C.ar    1  UNL1        0.0339
     12 C          -1.0002    1.0838   -0.0472 C.ar    1  UNL1        0.0253
     13 C          -1.8186    2.2513   -0.1084 C.ar    1  UNL1        0.1086
     14 N          -1.4407    3.5370   -0.2264 N.ar    1  UNL1       -0.1901
     15 S          -2.8083    4.4658   -0.2467 S.2     1  UNL1        0.1165
     16 N          -3.9740    3.2975   -0.1068 N.ar    1  UNL1       -0.1908
     17 C          -3.3288    2.1233   -0.0383 C.ar    1  UNL1        0.1005
     18 C          -3.9585    0.8644    0.0876 C.ar    1  UNL1       -0.0329
     19 C          -3.1149   -0.2563    0.1440 C.ar    1  UNL1       -0.0513
     20 C          -1.6990   -0.1713    0.0811 C.ar    1  UNL1       -0.0072
     21 C          -0.8612   -1.3987    0.1464 C.ar    1  UNL1       -0.0133
     22 C          -1.2277   -2.6878    0.2643 C.2     1  UNL1       -0.0719
     23 H           0.0568   -4.1243    1.2269 H       1  UNL1        0.0350
     24 H          -0.0138   -4.2673   -0.5554 H       1  UNL1        0.0350
     25 H           2.1559   -2.8384    0.1423 H       1  UNL1        0.0581
     26 H           5.7503   -0.0852   -0.2214 H       1  UNL1        0.1030
     27 H           4.9123    2.5467   -0.3993 H       1  UNL1        0.0660
     28 H          -5.0375    0.7759    0.1375 H       1  UNL1        0.0640
     29 H          -3.5940   -1.2298    0.2411 H       1  UNL1        0.0624
     30 H          -2.2317   -3.0752    0.3352 H       1  UNL1        0.0581
@<TRIPOS>BOND
     1     1     2    1
     2     2     3    2
     3     3     4   ar
     4     4     5   ar
     5     5     6   ar
     6     6     7   ar
     7     7     8   ar
     8     8     9   ar
     9     9    10   ar
    10    10    11   ar
    11    11    12   ar
    12    12    13   ar
    13    13    14   ar
    14    14    15   ar
    15    15    16   ar
    16    16    17   ar
    17    17    18   ar
    18    18    19   ar
    19    19    20   ar
    20    20    21   ar
    21    21    22    2
    22    22     1    1
    23    21     3   ar
    24    11     4   ar
    25    20    12   ar
    26     9     5   ar
    27    17    13   ar
    28     1    23    1
    29     1    24    1
    30     2    25    1
    31     7    26    1
    32     8    27    1
    33    18    28    1
    34    19    29    1
    35    22    30    1
