@<TRIPOS>MOLECULE
*****
 41 47 0 0 0
SMALL
GASTEIGER

@<TRIPOS>ATOM
      1 SI         -0.7824   -3.8846   -1.0728 Si      1  UNL1        0.0000
      2 C           0.8355   -2.9717   -1.0032 C.2     1  UNL1        0.0000
      3 C           0.6682   -1.7291   -0.5109 C.ar    1  UNL1        0.0000
      4 C           1.7064   -0.8406   -0.1099 C.ar    1  UNL1        0.0000
      5 C           3.1089   -0.8952   -0.2483 C.ar    1  UNL1        0.0000
      6 C           3.6266    0.2278    0.3761 C.ar    1  UNL1        0.0000
      7 N           2.5577    0.9402    0.8839 N.ar    1  UNL1        0.0000
      8 C           1.3794    0.2968    0.6020 C.ar    1  UNL1        0.0000
      9 C           0.0141    0.7360    0.9079 C.ar    1  UNL1        0.0000
     10 C          -0.2652    1.8544    1.6746 C.ar    1  UNL1        0.0000
     11 N          -1.5071    2.3342    1.9098 N.ar    1  UNL1        0.0000
     12 C          -2.5450    1.7666    1.2890 C.ar    1  UNL1        0.0000
     13 C          -3.8048    2.3931    1.5228 C.ar    1  UNL1        0.0000
     14 C          -5.0393    2.0559    0.9236 C.ar    1  UNL1        0.0000
     15 C          -4.8380    1.0394    0.0141 C.ar    1  UNL1        0.0000
     16 C          -5.7750    0.5354   -0.8460 C.ar    1  UNL1        0.0000
     17 O          -5.1801   -0.3716   -1.6742 O.2     1  UNL1        0.0000
     18 C          -3.8593   -0.4388   -1.3252 C.ar    1  UNL1        0.0000
     19 C          -3.6077    0.3612   -0.2373 C.ar    1  UNL1        0.0000
     20 C          -2.3705    0.6224    0.4312 C.ar    1  UNL1        0.0000
     21 C          -1.0744    0.0161    0.3580 C.ar    1  UNL1        0.0000
     22 C          -0.7457   -1.3346   -0.2149 C.ar    1  UNL1        0.0000
     23 C          -1.6032   -2.3714   -0.3346 C.2     1  UNL1        0.0000
     24 C           4.9911    0.6512    0.5176 C.ar    1  UNL1        0.0000
     25 C           6.1341    0.0252    0.0515 C.ar    1  UNL1        0.0000
     26 N           7.3344    0.6547    0.3296 N.ar    1  UNL1        0.0000
     27 C           7.0925    1.7549    1.0049 C.ar    1  UNL1        0.0000
     28 S           5.4465    2.0926    1.3398 S.2     1  UNL1        0.0000
     29 H          -1.2352   -4.1395   -2.4611 H       1  UNL1        0.0000
     30 H          -0.8221   -5.0495   -0.1572 H       1  UNL1        0.0000
     31 H           1.7690   -3.4626   -1.2263 H       1  UNL1        0.0000
     32 H           3.6802   -1.6679   -0.7453 H       1  UNL1        0.0000
     33 H           2.6514    1.8169    1.3773 H       1  UNL1        0.0000
     34 H           0.5210    2.4286    2.1545 H       1  UNL1        0.0000
     35 H          -3.8078    3.2346    2.2201 H       1  UNL1        0.0000
     36 H          -5.9635    2.5805    1.1164 H       1  UNL1        0.0000
     37 H          -6.8241    0.7195   -1.0302 H       1  UNL1        0.0000
     38 H          -3.2627   -1.0740   -1.9630 H       1  UNL1        0.0000
     39 H          -2.6414   -2.4178   -0.0513 H       1  UNL1        0.0000
     40 H           6.1533   -0.9042   -0.5045 H       1  UNL1        0.0000
     41 H           7.8843    2.4152    1.3342 H       1  UNL1        0.0000
@<TRIPOS>BOND
     1     1     2    1
     2     2     3    2
     3     3     4   ar
     4     4     5   ar
     5     5     6   ar
     6     6     7   ar
     7     7     8   ar
     8     8     9   ar
     9     9    10   ar
    10    10    11   ar
    11    11    12   ar
    12    12    13   ar
    13    13    14   ar
    14    14    15   ar
    15    15    16   ar
    16    16    17   ar
    17    17    18   ar
    18    18    19   ar
    19    19    20   ar
    20    20    21   ar
    21    21    22   ar
    22    22    23    2
    23     6    24    1
    24    24    25   ar
    25    25    26   ar
    26    26    27   ar
    27    27    28   ar
    28    23     1    1
    29    28    24   ar
    30    22     3   ar
    31     8     4   ar
    32    21     9   ar
    33    20    12   ar
    34    19    15   ar
    35     1    29    1
    36     1    30    1
    37     2    31    1
    38     5    32    1
    39     7    33    1
    40    10    34    1
    41    13    35    1
    42    14    36    1
    43    16    37    1
    44    18    38    1
    45    23    39    1
    46    25    40    1
    47    27    41    1
