@<TRIPOS>MOLECULE
*****
 32 37 0 0 0
SMALL
GASTEIGER

@<TRIPOS>ATOM
      1 C           1.0363    3.4678    0.3653 C.3     1  UNL1       -0.0148
      2 C           1.7689    2.1706    0.2239 C.2     1  UNL1       -0.0718
      3 C           0.8936    1.1563    0.1196 C.ar    1  UNL1       -0.0099
      4 C           1.1160   -0.2795   -0.0343 C.ar    1  UNL1        0.0360
      5 C           2.3923   -0.8400   -0.0990 C.ar    1  UNL1        0.1612
      6 O           3.6091   -0.2203   -0.0378 O.2     1  UNL1       -0.4607
      7 C           4.5568   -1.1901   -0.1446 C.ar    1  UNL1        0.0947
      8 C           3.9728   -2.4288   -0.2741 C.ar    1  UNL1        0.0022
      9 C           2.5789   -2.2069   -0.2451 C.ar    1  UNL1        0.1095
     10 N           1.5587   -3.0869   -0.3347 N.ar    1  UNL1       -0.2511
     11 C           0.3214   -2.5195   -0.2695 C.ar    1  UNL1        0.0369
     12 C           0.0056   -1.1589   -0.1236 C.ar    1  UNL1        0.0142
     13 C          -1.3883   -0.6067   -0.0593 C.ar    1  UNL1        0.0201
     14 C          -2.5796   -1.4036   -0.1401 C.ar    1  UNL1        0.1082
     15 N          -2.6700   -2.7384   -0.2831 N.ar    1  UNL1       -0.1901
     16 S          -4.2721   -3.1443   -0.3204 S.2     1  UNL1        0.1165
     17 N          -4.9646   -1.6518   -0.1575 N.ar    1  UNL1       -0.1908
     18 C          -3.9574   -0.7706   -0.0669 C.ar    1  UNL1        0.1005
     19 C          -4.1265    0.6192    0.0828 C.ar    1  UNL1       -0.0329
     20 C          -2.9494    1.3722    0.1587 C.ar    1  UNL1       -0.0513
     21 C          -1.6436    0.8065    0.0929 C.ar    1  UNL1       -0.0076
     22 C          -0.4616    1.6904    0.1823 C.ar    1  UNL1       -0.0133
     23 C          -0.3958    3.0264    0.3244 C.2     1  UNL1       -0.0719
     24 H           1.2650    4.1441   -0.4634 H       1  UNL1        0.0350
     25 H           1.2727    3.9544    1.3160 H       1  UNL1        0.0350
     26 H           2.8456    2.0999    0.2117 H       1  UNL1        0.0581
     27 H           5.5811   -0.8455   -0.1119 H       1  UNL1        0.1030
     28 H           4.4801   -3.3760   -0.3768 H       1  UNL1        0.0670
     29 H          -0.4501   -3.2788   -0.3471 H       1  UNL1        0.0836
     30 H          -5.1092    1.0721    0.1352 H       1  UNL1        0.0640
     31 H          -3.0671    2.4490    0.2745 H       1  UNL1        0.0624
     32 H          -1.2197    3.7178    0.4016 H       1  UNL1        0.0581
@<TRIPOS>BOND
     1     1     2    1
     2     2     3    2
     3     3     4   ar
     4     4     5   ar
     5     5     6   ar
     6     6     7   ar
     7     7     8   ar
     8     8     9   ar
     9     9    10   ar
    10    10    11   ar
    11    11    12   ar
    12    12    13   ar
    13    13    14   ar
    14    14    15   ar
    15    15    16   ar
    16    16    17   ar
    17    17    18   ar
    18    18    19   ar
    19    19    20   ar
    20    20    21   ar
    21    21    22   ar
    22    22    23    2
    23    23     1    1
    24    22     3   ar
    25    12     4   ar
    26    21    13   ar
    27     9     5   ar
    28    18    14   ar
    29     1    24    1
    30     1    25    1
    31     2    26    1
    32     7    27    1
    33     8    28    1
    34    11    29    1
    35    19    30    1
    36    20    31    1
    37    23    32    1
