@<TRIPOS>MOLECULE
*****
 33 38 0 0 0
SMALL
GASTEIGER

@<TRIPOS>ATOM
      1 C          -3.0723   -2.6382    0.0391 C.3     1  UNL1       -0.0148
      2 C          -3.5108   -1.2154   -0.1322 C.2     1  UNL1       -0.0719
      3 C          -2.4355   -0.4142   -0.1431 C.ar    1  UNL1       -0.0129
      4 C          -2.3431    1.0029   -0.2794 C.ar    1  UNL1       -0.0028
      5 C          -3.4103    1.9292   -0.4414 C.ar    1  UNL1       -0.0464
      6 C          -2.9442    3.2198   -0.5409 C.ar    1  UNL1       -0.0231
      7 S          -1.2418    3.2947   -0.4383 S.2     1  UNL1       -0.0960
      8 C          -1.0857    1.6048   -0.2585 C.ar    1  UNL1        0.0283
      9 C           0.1807    0.8564   -0.1014 C.ar    1  UNL1        0.0097
     10 C           1.5015    1.3510   -0.0657 C.ar    1  UNL1        0.0090
     11 C           1.9658    2.6469   -0.1658 C.ar    1  UNL1        0.0100
     12 N           3.3513    2.6402   -0.0755 N.ar    1  UNL1       -0.3659
     13 C           3.8128    1.3540    0.0834 C.ar    1  UNL1        0.0101
     14 C           2.6852    0.5923    0.0870 C.ar    1  UNL1        0.0108
     15 C           2.5703   -0.8087    0.2203 C.ar    1  UNL1        0.0299
     16 C           3.5278   -1.8031    0.3820 C.ar    1  UNL1       -0.0155
     17 C           2.7795   -2.9605    0.4498 C.ar    1  UNL1        0.0932
     18 O           1.4420   -2.6988    0.3371 O.2     1  UNL1       -0.4623
     19 C           1.2976   -1.3381    0.1911 C.ar    1  UNL1        0.1437
     20 C           0.1126   -0.5825    0.0386 C.ar    1  UNL1        0.0341
     21 C          -1.2200   -1.2174    0.0162 C.ar    1  UNL1       -0.0099
     22 C          -1.5798   -2.5087    0.1226 C.2     1  UNL1       -0.0718
     23 H          -3.3673   -3.2482   -0.8197 H       1  UNL1        0.0350
     24 H          -3.4822   -3.0698    0.9568 H       1  UNL1        0.0350
     25 H          -4.5395   -0.9063   -0.2297 H       1  UNL1        0.0581
     26 H          -4.4613    1.6737   -0.4838 H       1  UNL1        0.0629
     27 H          -3.5221    4.1244   -0.6691 H       1  UNL1        0.0694
     28 H           1.4743    3.5990   -0.2932 H       1  UNL1        0.0813
     29 H           3.9332    3.4670   -0.1209 H       1  UNL1        0.1648
     30 H           4.8670    1.1330    0.1738 H       1  UNL1        0.0813
     31 H           4.6025   -1.7215    0.4433 H       1  UNL1        0.0655
     32 H           3.0322   -4.0047    0.5710 H       1  UNL1        0.1030
     33 H          -0.9204   -3.3531    0.2500 H       1  UNL1        0.0581
@<TRIPOS>BOND
     1     1     2    1
     2     2     3    2
     3     3     4   ar
     4     4     5   ar
     5     5     6   ar
     6     6     7   ar
     7     7     8   ar
     8     8     9   ar
     9     9    10   ar
    10    10    11   ar
    11    11    12   ar
    12    12    13   ar
    13    13    14   ar
    14    14    15   ar
    15    15    16   ar
    16    16    17   ar
    17    17    18   ar
    18    18    19   ar
    19    19    20   ar
    20    20    21   ar
    21    21    22    2
    22    22     1    1
    23    21     3   ar
    24     8     4   ar
    25    20     9   ar
    26    14    10   ar
    27    19    15   ar
    28     1    23    1
    29     1    24    1
    30     2    25    1
    31     5    26    1
    32     6    27    1
    33    11    28    1
    34    12    29    1
    35    13    30    1
    36    16    31    1
    37    17    32    1
    38    22    33    1
