@<TRIPOS>MOLECULE
*****
 33 37 0 0 0
SMALL
GASTEIGER

@<TRIPOS>ATOM
      1 C          -2.4551   -3.2464   -0.8023 C.3     1  UNL1        0.0000
      2 C          -3.1321   -1.9894   -0.3426 C.2     1  UNL1        0.0000
      3 C          -2.2123   -1.0367   -0.1254 C.ar    1  UNL1        0.0000
      4 C          -2.3894    0.3268    0.3223 C.ar    1  UNL1        0.0000
      5 C          -3.6508    0.9973    0.6500 C.2     1  UNL1        0.0000
      6 C          -3.5461    2.2781    1.0456 C.2     1  UNL1        0.0000
      7 SI         -1.7617    2.8201    1.0538 Si      1  UNL1        0.0000
      8 C          -1.2758    1.1006    0.4651 C.ar    1  UNL1        0.0000
      9 C           0.1109    0.6279    0.1886 C.ar    1  UNL1        0.0000
     10 C           1.2354    1.4570    0.3479 C.ar    1  UNL1        0.0000
     11 C           2.5070    0.9552    0.0726 C.ar    1  UNL1        0.0000
     12 SI          4.1717    1.8208    0.1939 Si      1  UNL1        0.0000
     13 C           4.9778    0.2265   -0.3844 C.2     1  UNL1        0.0000
     14 C           4.0909   -0.7586   -0.6148 C.2     1  UNL1        0.0000
     15 C           2.6921   -0.3734   -0.3648 C.ar    1  UNL1        0.0000
     16 C           1.5982   -1.2108   -0.5295 C.ar    1  UNL1        0.0000
     17 C           0.3096   -0.7223   -0.2569 C.ar    1  UNL1        0.0000
     18 C          -0.8864   -1.5711   -0.4159 C.ar    1  UNL1        0.0000
     19 C          -1.0070   -2.8504   -0.8096 C.2     1  UNL1        0.0000
     20 H          -2.6350   -4.0691   -0.1043 H       1  UNL1        0.0000
     21 H          -2.7906   -3.5314   -1.8038 H       1  UNL1        0.0000
     22 H          -4.1983   -1.8900   -0.2135 H       1  UNL1        0.0000
     23 H          -4.5962    0.4756    0.5715 H       1  UNL1        0.0000
     24 H          -4.3512    2.9374    1.3280 H       1  UNL1        0.0000
     25 H          -1.2668    3.1230    2.4201 H       1  UNL1        0.0000
     26 H          -1.4841    3.8743    0.0462 H       1  UNL1        0.0000
     27 H           1.1430    2.4853    0.6817 H       1  UNL1        0.0000
     28 H           4.3219    2.9186   -0.7935 H       1  UNL1        0.0000
     29 H           4.5403    2.1645    1.5899 H       1  UNL1        0.0000
     30 H           6.0484    0.1610   -0.5032 H       1  UNL1        0.0000
     31 H           4.3517   -1.7525   -0.9532 H       1  UNL1        0.0000
     32 H           1.7485   -2.2309   -0.8660 H       1  UNL1        0.0000
     33 H          -0.2085   -3.5169   -1.0937 H       1  UNL1        0.0000
@<TRIPOS>BOND
     1     1     2    1
     2     2     3    2
     3     3     4   ar
     4     4     5    1
     5     5     6    2
     6     6     7    1
     7     7     8    1
     8     8     9   ar
     9     9    10   ar
    10    10    11   ar
    11    11    12    1
    12    12    13    1
    13    13    14    2
    14    14    15    1
    15    15    16   ar
    16    16    17   ar
    17    17    18   ar
    18    18    19    2
    19    19     1    1
    20    18     3   ar
    21     8     4   ar
    22    17     9   ar
    23    15    11   ar
    24     1    20    1
    25     1    21    1
    26     2    22    1
    27     5    23    1
    28     6    24    1
    29     7    25    1
    30     7    26    1
    31    10    27    1
    32    12    28    1
    33    12    29    1
    34    13    30    1
    35    14    31    1
    36    16    32    1
    37    19    33    1
