@<TRIPOS>MOLECULE
*****
 44 50 0 0 0
SMALL
GASTEIGER

@<TRIPOS>ATOM
      1 C          -0.0400    4.2095    0.2960 C.3     1  UNL1       -0.0148
      2 C           1.3185    3.8140   -0.1983 C.2     1  UNL1       -0.0720
      3 C           1.3741    2.4789   -0.3030 C.ar    1  UNL1       -0.0138
      4 C           2.4867    1.6297   -0.5917 C.ar    1  UNL1       -0.0138
      5 C           3.7474    1.9134   -1.2320 C.2     1  UNL1       -0.0574
      6 C           4.4232    0.7706   -1.4011 C.2     1  UNL1       -0.0791
      7 C           3.6389   -0.3716   -0.8158 C.3     1  UNL1       -0.0080
      8 C           2.3878    0.3069   -0.3164 C.ar    1  UNL1       -0.0276
      9 C           1.1236   -0.3414    0.1955 C.ar    1  UNL1       -0.0049
     10 C           1.0434   -1.6685    0.7044 C.ar    1  UNL1       -0.0093
     11 C           2.1866   -2.3834    1.1465 C.ar    1  UNL1       -0.0534
     12 C           2.1367   -3.6858    1.6389 C.ar    1  UNL1       -0.0611
     13 C           0.9202   -4.3209    1.7302 C.ar    1  UNL1       -0.0611
     14 C          -0.2345   -3.6361    1.3536 C.ar    1  UNL1       -0.0534
     15 C          -0.2310   -2.3036    0.8512 C.ar    1  UNL1       -0.0095
     16 C          -1.4459   -1.6227    0.4826 C.ar    1  UNL1       -0.0089
     17 C          -2.7639   -2.2748    0.5524 C.ar    1  UNL1       -0.0528
     18 C          -4.0155   -1.7440    0.1646 C.ar    1  UNL1       -0.0520
     19 C          -3.8329   -0.4878   -0.3628 C.ar    1  UNL1        0.0000
     20 C          -4.8234    0.2560   -0.9500 C.ar    1  UNL1        0.0094
     21 N          -4.2194    1.3841   -1.4501 N.ar    1  UNL1       -0.3659
     22 C          -2.8659    1.3454   -1.1919 C.ar    1  UNL1        0.0100
     23 C          -2.6012    0.2232   -0.4380 C.ar    1  UNL1        0.0077
     24 C          -1.3368   -0.2569    0.0396 C.ar    1  UNL1        0.0001
     25 C          -0.0804    0.4151    0.0622 C.ar    1  UNL1       -0.0012
     26 C           0.0880    1.8921    0.0394 C.ar    1  UNL1       -0.0129
     27 C          -0.7208    2.8814    0.4592 C.2     1  UNL1       -0.0719
     28 H          -0.5629    4.8370   -0.4314 H       1  UNL1        0.0350
     29 H           0.0298    4.7332    1.2539 H       1  UNL1        0.0350
     30 H           2.1343    4.5007   -0.3608 H       1  UNL1        0.0581
     31 H           4.0599    2.8945   -1.5536 H       1  UNL1        0.0621
     32 H           5.3899    0.6730   -1.8710 H       1  UNL1        0.0575
     33 H           3.4161   -1.1231   -1.5791 H       1  UNL1        0.0356
     34 H           4.2464   -0.8049   -0.0201 H       1  UNL1        0.0356
     35 H           3.1575   -1.9078    1.1858 H       1  UNL1        0.0624
     36 H           3.0456   -4.1833    1.9653 H       1  UNL1        0.0618
     37 H           0.8545   -5.3353    2.1136 H       1  UNL1        0.0618
     38 H          -1.1587   -4.1910    1.4784 H       1  UNL1        0.0624
     39 H          -2.8276   -3.2957    0.9248 H       1  UNL1        0.0624
     40 H          -4.9446   -2.2909    0.2214 H       1  UNL1        0.0624
     41 H          -5.8802    0.0794   -1.0965 H       1  UNL1        0.0813
     42 H          -4.6864    2.1087   -1.9797 H       1  UNL1        0.1648
     43 H          -2.2294    2.1195   -1.5957 H       1  UNL1        0.0813
     44 H          -1.7078    2.7633    0.8796 H       1  UNL1        0.0581
@<TRIPOS>BOND
     1     1     2    1
     2     2     3    2
     3     3     4   ar
     4     4     5    1
     5     5     6    2
     6     6     7    1
     7     7     8    1
     8     8     9   ar
     9     9    10   ar
    10    10    11   ar
    11    11    12   ar
    12    12    13   ar
    13    13    14   ar
    14    14    15   ar
    15    15    16   ar
    16    16    17   ar
    17    17    18   ar
    18    18    19   ar
    19    19    20   ar
    20    20    21   ar
    21    21    22   ar
    22    22    23   ar
    23    23    24   ar
    24    24    25   ar
    25    25    26   ar
    26    26    27    2
    27    27     1    1
    28    26     3   ar
    29     8     4   ar
    30    25     9   ar
    31    15    10   ar
    32    24    16   ar
    33    23    19   ar
    34     1    28    1
    35     1    29    1
    36     2    30    1
    37     5    31    1
    38     6    32    1
    39     7    33    1
    40     7    34    1
    41    11    35    1
    42    12    36    1
    43    13    37    1
    44    14    38    1
    45    17    39    1
    46    18    40    1
    47    20    41    1
    48    21    42    1
    49    22    43    1
    50    27    44    1
