@<TRIPOS>MOLECULE
*****
 40 46 0 0 0
SMALL
GASTEIGER

@<TRIPOS>ATOM
      1 C          -1.9741   -3.3848   -1.3651 C.3     1  UNL1        0.0000
      2 C          -2.9491   -2.4467   -0.7249 C.2     1  UNL1        0.0000
      3 C          -2.2867   -1.3825   -0.2439 C.ar    1  UNL1        0.0000
      4 C          -2.7909   -0.1598    0.3608 C.ar    1  UNL1        0.0000
      5 C          -4.1174    0.0081    0.7703 C.ar    1  UNL1        0.0000
      6 C          -4.5040    1.2006    1.3671 C.ar    1  UNL1        0.0000
      7 C          -3.5456    2.1799    1.5376 C.ar    1  UNL1        0.0000
      8 N          -2.2577    2.0490    1.1518 N.ar    1  UNL1        0.0000
      9 C          -1.8750    0.8919    0.5478 C.ar    1  UNL1        0.0000
     10 C          -0.4007    0.7580    0.1778 C.ar    1  UNL1        0.0000
     11 C           0.5173    1.9168    0.0374 C.ar    1  UNL1        0.0000
     12 C           0.1512    3.2179    0.0139 C.2     1  UNL1        0.0000
     13 SI          1.5622    4.3712   -0.3257 Si      1  UNL1        0.0000
     14 C           2.6550    2.8675   -0.4635 C.2     1  UNL1        0.0000
     15 C           1.9634    1.7282   -0.2446 C.ar    1  UNL1        0.0000
     16 C           2.5360    0.3666   -0.2221 C.ar    1  UNL1        0.0000
     17 C           3.9467    0.1640   -0.2482 C.ar    1  UNL1        0.0000
     18 C           4.5596   -1.0797   -0.0457 C.ar    1  UNL1        0.0000
     19 C           3.6908   -2.1436    0.2655 C.ar    1  UNL1        0.0000
     20 N           4.0888   -3.3875    0.5733 N.ar    1  UNL1        0.0000
     21 S           2.7185   -4.2397    0.9399 S.2     1  UNL1        0.0000
     22 N           1.5664   -3.0815    0.6947 N.ar    1  UNL1        0.0000
     23 C           2.1861   -1.9579    0.2857 C.ar    1  UNL1        0.0000
     24 C           1.5982   -0.6954   -0.0575 C.ar    1  UNL1        0.0000
     25 C           0.1086   -0.4905   -0.0936 C.ar    1  UNL1        0.0000
     26 C          -0.8583   -1.5299   -0.4762 C.ar    1  UNL1        0.0000
     27 C          -0.6746   -2.6616   -1.1804 C.2     1  UNL1        0.0000
     28 H          -1.9640   -4.3558   -0.8618 H       1  UNL1        0.0000
     29 H          -2.1998   -3.5205   -2.4268 H       1  UNL1        0.0000
     30 H          -4.0161   -2.6030   -0.7187 H       1  UNL1        0.0000
     31 H          -4.8479   -0.7845    0.6417 H       1  UNL1        0.0000
     32 H          -5.5238    1.3573    1.6993 H       1  UNL1        0.0000
     33 H          -3.7913    3.1278    2.0079 H       1  UNL1        0.0000
     34 H          -0.8392    3.6258    0.1271 H       1  UNL1        0.0000
     35 H           1.4343    5.0848   -1.6195 H       1  UNL1        0.0000
     36 H           1.9251    5.2187    0.8358 H       1  UNL1        0.0000
     37 H           3.7024    2.9918   -0.6791 H       1  UNL1        0.0000
     38 H           4.6127    1.0121   -0.3996 H       1  UNL1        0.0000
     39 H           5.6353   -1.2054   -0.0582 H       1  UNL1        0.0000
     40 H           0.2579   -3.0275   -1.5805 H       1  UNL1        0.0000
@<TRIPOS>BOND
     1     1     2    1
     2     2     3    2
     3     3     4   ar
     4     4     5   ar
     5     5     6   ar
     6     6     7   ar
     7     7     8   ar
     8     8     9   ar
     9     9    10   ar
    10    10    11   ar
    11    11    12    2
    12    12    13    1
    13    13    14    1
    14    14    15    2
    15    15    16   ar
    16    16    17   ar
    17    17    18   ar
    18    18    19   ar
    19    19    20   ar
    20    20    21   ar
    21    21    22   ar
    22    22    23   ar
    23    23    24   ar
    24    24    25   ar
    25    25    26   ar
    26    26    27    2
    27    27     1    1
    28    26     3   ar
    29     9     4   ar
    30    25    10   ar
    31    15    11   ar
    32    24    16   ar
    33    23    19   ar
    34     1    28    1
    35     1    29    1
    36     2    30    1
    37     5    31    1
    38     6    32    1
    39     7    33    1
    40    12    34    1
    41    13    35    1
    42    13    36    1
    43    14    37    1
    44    17    38    1
    45    18    39    1
    46    27    40    1
