@<TRIPOS>MOLECULE
*****
 45 53 0 0 0
SMALL
GASTEIGER

@<TRIPOS>ATOM
      1 C          -6.2148   -0.3716   -1.4366 C.ar    1  UNL1        0.0932
      2 C          -6.2194    0.4271   -0.3110 C.ar    1  UNL1       -0.0154
      3 C          -4.8717    0.5419    0.0036 C.ar    1  UNL1        0.0315
      4 C          -4.1932    1.1747    1.0534 C.ar    1  UNL1        0.0312
      5 C          -4.7119    1.8421    2.1143 C.ar    1  UNL1        0.1001
      6 O          -3.6626    2.1726    2.9228 O.2     1  UNL1       -0.4698
      7 C          -2.5179    1.7005    2.3251 C.ar    1  UNL1        0.1000
      8 C          -2.7809    1.1083    1.1057 C.ar    1  UNL1        0.0290
      9 C          -1.8633    0.4749    0.1912 C.ar    1  UNL1        0.0069
     10 C          -2.6717   -0.2336   -0.8053 C.ar    1  UNL1        0.0354
     11 C          -1.8850   -1.0068   -1.6681 C.ar    1  UNL1        0.0113
     12 C          -2.3237   -1.8161   -2.6913 C.ar    1  UNL1        0.0101
     13 N          -1.2233   -2.4032   -3.2662 N.ar    1  UNL1       -0.3659
     14 C          -0.0825   -1.9829   -2.6247 C.ar    1  UNL1        0.0100
     15 C          -0.4611   -1.1136   -1.6249 C.ar    1  UNL1        0.0079
     16 C           0.3992   -0.4250   -0.7407 C.ar    1  UNL1       -0.0053
     17 C           1.8219   -0.5843   -0.7885 C.ar    1  UNL1       -0.0419
     18 C           2.7099    0.1280    0.0275 C.ar    1  UNL1        0.0313
     19 C           4.1462   -0.0514   -0.0226 C.ar    1  UNL1        0.1012
     20 N           4.7670    0.0048   -1.2494 N.ar    1  UNL1       -0.2526
     21 C           6.1230   -0.1482   -1.3688 C.ar    1  UNL1        0.0304
     22 C           7.0362   -0.3985   -0.3506 C.ar    1  UNL1       -0.0153
     23 C           6.4411   -0.5126    0.9193 C.ar    1  UNL1        0.1034
     24 N           7.0958   -0.7779    2.0612 N.ar    1  UNL1       -0.1907
     25 S           5.9486   -0.8266    3.2602 S.2     1  UNL1        0.1165
     26 N           4.5715   -0.5403    2.3831 N.ar    1  UNL1       -0.1886
     27 C           4.9559   -0.3463    1.1075 C.ar    1  UNL1        0.1258
     28 C           2.0975    1.1064    0.8480 C.ar    1  UNL1        0.1097
     29 N           2.7541    1.9957    1.6163 N.ar    1  UNL1       -0.1901
     30 S           1.6240    2.9596    2.3256 S.2     1  UNL1        0.1165
     31 N           0.2472    2.3142    1.6939 N.ar    1  UNL1       -0.1901
     32 C           0.5784    1.2740    0.9105 C.ar    1  UNL1        0.1088
     33 C          -0.3461    0.4416    0.1567 C.ar    1  UNL1        0.0195
     34 C          -4.0851   -0.1570   -0.8790 C.ar    1  UNL1        0.1438
     35 O          -4.9432   -0.7339   -1.7865 O.2     1  UNL1       -0.4623
     36 H          -6.9941   -0.7632   -2.0758 H       1  UNL1        0.1030
     37 H          -7.0850    0.8406    0.1846 H       1  UNL1        0.0655
     38 H          -5.6946    2.1208    2.4645 H       1  UNL1        0.1036
     39 H          -1.6399    1.8523    2.9309 H       1  UNL1        0.1036
     40 H          -3.3110   -2.0393   -3.0720 H       1  UNL1        0.0813
     41 H          -1.2505   -3.0454   -4.0477 H       1  UNL1        0.1648
     42 H           0.8805   -2.3443   -2.9575 H       1  UNL1        0.0813
     43 H           2.2558   -1.2918   -1.4953 H       1  UNL1        0.0631
     44 H           6.4812   -0.0563   -2.3946 H       1  UNL1        0.0830
     45 H           8.0977   -0.5104   -0.5174 H       1  UNL1        0.0655
@<TRIPOS>BOND
     1     1     2   ar
     2     2     3   ar
     3     3     4   ar
     4     4     5   ar
     5     5     6   ar
     6     6     7   ar
     7     7     8   ar
     8     8     9   ar
     9     9    10   ar
    10    10    11   ar
    11    11    12   ar
    12    12    13   ar
    13    13    14   ar
    14    14    15   ar
    15    15    16   ar
    16    16    17   ar
    17    17    18   ar
    18    18    19    1
    19    19    20   ar
    20    20    21   ar
    21    21    22   ar
    22    22    23   ar
    23    23    24   ar
    24    24    25   ar
    25    25    26   ar
    26    26    27   ar
    27    18    28   ar
    28    28    29   ar
    29    29    30   ar
    30    30    31   ar
    31    31    32   ar
    32    32    33   ar
    33    10    34   ar
    34    34    35   ar
    35    35     1   ar
    36    34     3   ar
    37     8     4   ar
    38    33     9   ar
    39    15    11   ar
    40    33    16   ar
    41    27    19   ar
    42    32    28   ar
    43    27    23   ar
    44     1    36    1
    45     2    37    1
    46     5    38    1
    47     7    39    1
    48    12    40    1
    49    13    41    1
    50    14    42    1
    51    17    43    1
    52    21    44    1
    53    22    45    1
