@<TRIPOS>MOLECULE
*****
 36 42 0 0 0
SMALL
GASTEIGER

@<TRIPOS>ATOM
      1 C           4.6012    0.1480   -0.2105 C.ar    1  UNL1        0.0028
      2 C           4.2419   -1.1590    0.0362 C.ar    1  UNL1       -0.0360
      3 C           2.8543   -1.1199    0.1253 C.ar    1  UNL1        0.0110
      4 C           1.9354   -2.1496    0.3835 C.ar    1  UNL1        0.0296
      5 C           2.1834   -3.4526    0.6706 C.ar    1  UNL1        0.1000
      6 O           0.9800   -4.0321    0.9535 O.2     1  UNL1       -0.4698
      7 C           0.0186   -3.0592    0.8188 C.ar    1  UNL1        0.1000
      8 C           0.5567   -1.8591    0.3973 C.ar    1  UNL1        0.0289
      9 C          -0.1089   -0.6075    0.1711 C.ar    1  UNL1        0.0053
     10 C           0.9290    0.4264    0.0559 C.ar    1  UNL1        0.0165
     11 C           0.3649    1.7152    0.0424 C.ar    1  UNL1        0.0097
     12 C           1.0211    2.9272    0.0687 C.ar    1  UNL1        0.0101
     13 N           0.0758    3.9275    0.0735 N.ar    1  UNL1       -0.3659
     14 C          -1.1813    3.3795    0.0778 C.ar    1  UNL1        0.0100
     15 C          -1.0390    2.0093    0.0763 C.ar    1  UNL1        0.0078
     16 C          -2.0944    1.0702    0.0831 C.ar    1  UNL1       -0.0060
     17 C          -3.4731    1.4688    0.0750 C.ar    1  UNL1       -0.0512
     18 C          -4.5251    0.5597    0.0071 C.ar    1  UNL1       -0.0329
     19 C          -4.1449   -0.7885   -0.1105 C.ar    1  UNL1        0.1005
     20 N          -5.0157   -1.7994   -0.2568 N.ar    1  UNL1       -0.1908
     21 S          -4.1158   -3.1721   -0.4410 S.2     1  UNL1        0.1165
     22 N          -2.5932   -2.5493   -0.3178 N.ar    1  UNL1       -0.1901
     23 C          -2.6873   -1.2273   -0.0929 C.ar    1  UNL1        0.1082
     24 C          -1.5859   -0.2908    0.0798 C.ar    1  UNL1        0.0194
     25 C           2.3305    0.1505   -0.0208 C.ar    1  UNL1        0.0556
     26 N           3.4564    0.9188   -0.2501 N.ar    1  UNL1       -0.3601
     27 H           5.5698    0.6033   -0.3683 H       1  UNL1        0.0807
     28 H           4.9099   -2.0044    0.1259 H       1  UNL1        0.0639
     29 H           3.0543   -4.0844    0.7597 H       1  UNL1        0.1036
     30 H          -0.9646   -3.4018    1.0967 H       1  UNL1        0.1036
     31 H           2.0591    3.2109    0.1116 H       1  UNL1        0.0813
     32 H           0.2781    4.9193    0.0926 H       1  UNL1        0.1648
     33 H          -2.0465    4.0274    0.0901 H       1  UNL1        0.0813
     34 H          -3.7326    2.5254    0.1114 H       1  UNL1        0.0624
     35 H          -5.5632    0.8668   -0.0054 H       1  UNL1        0.0640
     36 H           3.4511    1.9030   -0.4633 H       1  UNL1        0.1654
@<TRIPOS>BOND
     1     1     2   ar
     2     2     3   ar
     3     3     4   ar
     4     4     5   ar
     5     5     6   ar
     6     6     7   ar
     7     7     8   ar
     8     8     9   ar
     9     9    10   ar
    10    10    11   ar
    11    11    12   ar
    12    12    13   ar
    13    13    14   ar
    14    14    15   ar
    15    15    16   ar
    16    16    17   ar
    17    17    18   ar
    18    18    19   ar
    19    19    20   ar
    20    20    21   ar
    21    21    22   ar
    22    22    23   ar
    23    23    24   ar
    24    10    25   ar
    25    25    26   ar
    26    26     1   ar
    27    25     3   ar
    28     8     4   ar
    29    24     9   ar
    30    15    11   ar
    31    24    16   ar
    32    23    19   ar
    33     1    27    1
    34     2    28    1
    35     5    29    1
    36     7    30    1
    37    12    31    1
    38    13    32    1
    39    14    33    1
    40    17    34    1
    41    18    35    1
    42    26    36    1
