@<TRIPOS>MOLECULE
*****
 49 56 0 0 0
SMALL
GASTEIGER

@<TRIPOS>ATOM
      1 C           6.9789    1.2335   -0.0913 C.ar    1  UNL1        0.0028
      2 C           6.9026   -0.1441   -0.1168 C.ar    1  UNL1       -0.0360
      3 C           5.5420   -0.4117   -0.2146 C.ar    1  UNL1        0.0110
      4 C           4.8536   -1.6344   -0.3343 C.ar    1  UNL1        0.0296
      5 C           5.3417   -2.8963   -0.4394 C.ar    1  UNL1        0.1000
      6 O           4.2729   -3.7183   -0.6756 O.2     1  UNL1       -0.4698
      7 C           3.1472   -2.9302   -0.7057 C.ar    1  UNL1        0.1000
      8 C           3.4480   -1.6156   -0.4197 C.ar    1  UNL1        0.0289
      9 C           2.5657   -0.4901   -0.3822 C.ar    1  UNL1        0.0061
     10 C           3.3367    0.7124   -0.3797 C.ar    1  UNL1        0.0254
     11 C           2.6495    1.9154   -0.5220 C.ar    1  UNL1        0.0380
     12 N           1.3095    2.0330   -0.6707 N.ar    1  UNL1       -0.2542
     13 C           0.5432    0.9412   -0.5974 C.ar    1  UNL1        0.0729
     14 C          -0.8534    1.1803   -0.7258 C.ar    1  UNL1       -0.0273
     15 C          -1.8855    0.2194   -0.6010 C.ar    1  UNL1       -0.0045
     16 C          -3.3107    0.4986   -0.7250 C.ar    1  UNL1       -0.0094
     17 C          -3.8897    0.4195   -2.0046 C.ar    1  UNL1       -0.0534
     18 C          -5.2450    0.6675   -2.1951 C.ar    1  UNL1       -0.0606
     19 C          -6.0461    1.0010   -1.1073 C.ar    1  UNL1       -0.0540
     20 C          -5.5059    1.0937    0.1836 C.ar    1  UNL1       -0.0173
     21 C          -6.3311    1.4332    1.2687 C.ar    1  UNL1       -0.0540
     22 C          -5.8158    1.5328    2.5600 C.ar    1  UNL1       -0.0612
     23 C          -4.4667    1.2950    2.7834 C.ar    1  UNL1       -0.0611
     24 C          -3.6331    0.9565    1.7151 C.ar    1  UNL1       -0.0534
     25 C          -4.1250    0.8448    0.3924 C.ar    1  UNL1       -0.0102
     26 C          -1.3370   -1.0153   -0.2784 C.ar    1  UNL1        0.0283
     27 C          -2.0159   -2.1627    0.0387 C.ar    1  UNL1        0.1000
     28 O          -1.1266   -3.1213    0.4238 O.2     1  UNL1       -0.4698
     29 C           0.1240   -2.5759    0.3406 C.ar    1  UNL1        0.1001
     30 C           0.0601   -1.3010   -0.1642 C.ar    1  UNL1        0.0302
     31 C           1.1148   -0.3621   -0.3834 C.ar    1  UNL1        0.0196
     32 C           4.7692    0.7333   -0.2613 C.ar    1  UNL1        0.0564
     33 N           5.7024    1.7526   -0.1864 N.ar    1  UNL1       -0.3601
     34 H           7.8310    1.8969   -0.0223 H       1  UNL1        0.0807
     35 H           7.7344   -0.8340   -0.0754 H       1  UNL1        0.0639
     36 H           6.3144   -3.3653   -0.4271 H       1  UNL1        0.1036
     37 H           2.2538   -3.4685   -0.9819 H       1  UNL1        0.1036
     38 H           3.1667    2.8702   -0.5511 H       1  UNL1        0.0836
     39 H          -1.1547    2.2133   -0.9190 H       1  UNL1        0.0645
     40 H          -3.2757    0.1587   -2.8652 H       1  UNL1        0.0624
     41 H          -5.6767    0.6011   -3.1902 H       1  UNL1        0.0618
     42 H          -7.1040    1.1912   -1.2762 H       1  UNL1        0.0624
     43 H          -7.3910    1.6250    1.1145 H       1  UNL1        0.0624
     44 H          -6.4683    1.7967    3.3879 H       1  UNL1        0.0618
     45 H          -4.0572    1.3720    3.7872 H       1  UNL1        0.0618
     46 H          -2.5813    0.7797    1.9307 H       1  UNL1        0.0624
     47 H          -3.0593   -2.4427    0.0912 H       1  UNL1        0.1036
     48 H           0.9065   -3.2190    0.7126 H       1  UNL1        0.1036
     49 H           5.4871    2.7401   -0.1927 H       1  UNL1        0.1654
@<TRIPOS>BOND
     1     1     2   ar
     2     2     3   ar
     3     3     4   ar
     4     4     5   ar
     5     5     6   ar
     6     6     7   ar
     7     7     8   ar
     8     8     9   ar
     9     9    10   ar
    10    10    11   ar
    11    11    12   ar
    12    12    13   ar
    13    13    14   ar
    14    14    15   ar
    15    15    16    1
    16    16    17   ar
    17    17    18   ar
    18    18    19   ar
    19    19    20   ar
    20    20    21   ar
    21    21    22   ar
    22    22    23   ar
    23    23    24   ar
    24    24    25   ar
    25    15    26   ar
    26    26    27   ar
    27    27    28   ar
    28    28    29   ar
    29    29    30   ar
    30    30    31   ar
    31    10    32   ar
    32    32    33   ar
    33    33     1   ar
    34    32     3   ar
    35     8     4   ar
    36    31     9   ar
    37    31    13   ar
    38    25    16   ar
    39    30    26   ar
    40    25    20   ar
    41     1    34    1
    42     2    35    1
    43     5    36    1
    44     7    37    1
    45    11    38    1
    46    14    39    1
    47    17    40    1
    48    18    41    1
    49    19    42    1
    50    21    43    1
    51    22    44    1
    52    23    45    1
    53    24    46    1
    54    27    47    1
    55    29    48    1
    56    33    49    1
