@<TRIPOS>MOLECULE
*****
 46 52 0 0 0
SMALL
GASTEIGER

@<TRIPOS>ATOM
      1 C          -6.7398   -1.6976    0.0081 C.ar    1  UNL1        0.0028
      2 C          -6.7269   -0.3688    0.3792 C.ar    1  UNL1       -0.0360
      3 C          -5.3949    0.0105    0.2554 C.ar    1  UNL1        0.0110
      4 C          -4.7687    1.2480    0.4949 C.ar    1  UNL1        0.0296
      5 C          -5.3127    2.4169    0.9177 C.ar    1  UNL1        0.1000
      6 O          -4.2942    3.3251    0.9972 O.2     1  UNL1       -0.4698
      7 C          -3.1386    2.6835    0.6170 C.ar    1  UNL1        0.1000
      8 C          -3.3784    1.3650    0.2873 C.ar    1  UNL1        0.0289
      9 C          -2.4544    0.3575   -0.1557 C.ar    1  UNL1        0.0054
     10 C          -3.1650   -0.8680   -0.3769 C.ar    1  UNL1        0.0254
     11 C          -2.4344   -1.9684   -0.8121 C.ar    1  UNL1        0.0380
     12 N          -1.1057   -1.9629   -1.0401 N.ar    1  UNL1       -0.2543
     13 C          -0.4248   -0.8276   -0.8390 C.ar    1  UNL1        0.0722
     14 C           0.9401   -0.8764   -1.0875 C.ar    1  UNL1       -0.0280
     15 C           1.7780    0.2318   -0.9187 C.ar    1  UNL1       -0.0153
     16 C           1.2053    1.4250   -0.4888 C.ar    1  UNL1       -0.0533
     17 C          -0.1668    1.4957   -0.2326 C.ar    1  UNL1       -0.0514
     18 C          -1.0223    0.3789   -0.3974 C.ar    1  UNL1        0.0089
     19 C           3.2192    0.1402   -1.1956 C.ar    1  UNL1       -0.0101
     20 C           3.6593    0.3911   -2.5083 C.ar    1  UNL1       -0.0534
     21 C           5.0096    0.3273   -2.8360 C.ar    1  UNL1       -0.0606
     22 C           5.9448    0.0112   -1.8550 C.ar    1  UNL1       -0.0540
     23 C           5.5457   -0.2474   -0.5355 C.ar    1  UNL1       -0.0173
     24 C           6.5046   -0.5666    0.4406 C.ar    1  UNL1       -0.0540
     25 C           6.1300   -0.8297    1.7573 C.ar    1  UNL1       -0.0612
     26 C           4.7899   -0.7779    2.1158 C.ar    1  UNL1       -0.0611
     27 C           3.8247   -0.4616    1.1571 C.ar    1  UNL1       -0.0534
     28 C           4.1718   -0.1874   -0.1873 C.ar    1  UNL1       -0.0102
     29 C          -4.5793   -1.0176   -0.1744 C.ar    1  UNL1        0.0564
     30 N          -5.4543   -2.0801   -0.3216 N.ar    1  UNL1       -0.3601
     31 H          -7.5511   -2.4112   -0.0520 H       1  UNL1        0.0807
     32 H          -7.5794    0.2187    0.6917 H       1  UNL1        0.0639
     33 H          -6.2962    2.7720    1.1877 H       1  UNL1        0.1036
     34 H          -2.2759    3.3280    0.6495 H       1  UNL1        0.1036
     35 H          -2.8982   -2.9313   -1.0023 H       1  UNL1        0.0836
     36 H           1.3692   -1.8196   -1.4239 H       1  UNL1        0.0645
     37 H           1.8241    2.3093   -0.3471 H       1  UNL1        0.0624
     38 H          -0.5435    2.4524    0.0996 H       1  UNL1        0.0624
     39 H           2.9381    0.6395   -3.2851 H       1  UNL1        0.0624
     40 H           5.3330    0.5234   -3.8548 H       1  UNL1        0.0618
     41 H           6.9964   -0.0340   -2.1307 H       1  UNL1        0.0624
     42 H           7.5598   -0.6142    0.1796 H       1  UNL1        0.0624
     43 H           6.8846   -1.0761    2.4993 H       1  UNL1        0.0618
     44 H           4.4895   -0.9845    3.1396 H       1  UNL1        0.0618
     45 H           2.7841   -0.4341    1.4745 H       1  UNL1        0.0624
     46 H          -5.1961   -3.0082   -0.6269 H       1  UNL1        0.1654
@<TRIPOS>BOND
     1     1     2   ar
     2     2     3   ar
     3     3     4   ar
     4     4     5   ar
     5     5     6   ar
     6     6     7   ar
     7     7     8   ar
     8     8     9   ar
     9     9    10   ar
    10    10    11   ar
    11    11    12   ar
    12    12    13   ar
    13    13    14   ar
    14    14    15   ar
    15    15    16   ar
    16    16    17   ar
    17    17    18   ar
    18    15    19    1
    19    19    20   ar
    20    20    21   ar
    21    21    22   ar
    22    22    23   ar
    23    23    24   ar
    24    24    25   ar
    25    25    26   ar
    26    26    27   ar
    27    27    28   ar
    28    10    29   ar
    29    29    30   ar
    30    30     1   ar
    31    29     3   ar
    32     8     4   ar
    33    18     9   ar
    34    28    19   ar
    35    18    13   ar
    36    28    23   ar
    37     1    31    1
    38     2    32    1
    39     5    33    1
    40     7    34    1
    41    11    35    1
    42    14    36    1
    43    16    37    1
    44    17    38    1
    45    20    39    1
    46    21    40    1
    47    22    41    1
    48    24    42    1
    49    25    43    1
    50    26    44    1
    51    27    45    1
    52    30    46    1
