@<TRIPOS>MOLECULE
*****
 42 48 0 0 0
SMALL
GASTEIGER

@<TRIPOS>ATOM
      1 C          -6.3149    2.5380    0.2142 C.ar    1  UNL1       -0.0231
      2 C          -6.2630    1.1674    0.0853 C.ar    1  UNL1       -0.0462
      3 C          -4.9222    0.7526    0.0605 C.ar    1  UNL1        0.0020
      4 C          -4.4568   -0.5839   -0.0059 C.ar    1  UNL1        0.0288
      5 C          -5.1601   -1.7464    0.0043 C.ar    1  UNL1        0.1000
      6 O          -4.2501   -2.7660    0.0679 O.2     1  UNL1       -0.4698
      7 C          -3.0001   -2.1986    0.0907 C.ar    1  UNL1        0.1001
      8 C          -3.0724   -0.8273   -0.0342 C.ar    1  UNL1        0.0302
      9 C          -2.0015    0.1146   -0.0249 C.ar    1  UNL1        0.0205
     10 C          -2.5332    1.4222    0.1724 C.ar    1  UNL1        0.0865
     11 N          -1.7544    2.5054    0.4018 N.ar    1  UNL1       -0.2532
     12 C          -0.4170    2.3213    0.4710 C.ar    1  UNL1        0.0360
     13 C           0.2569    1.1287    0.2312 C.ar    1  UNL1        0.0020
     14 C           1.6914    1.1150    0.3282 C.ar    1  UNL1       -0.0442
     15 C           2.5155    0.0081    0.0314 C.ar    1  UNL1       -0.0090
     16 C           3.9670    0.0358    0.1375 C.ar    1  UNL1       -0.0173
     17 C           4.5945   -0.1447    1.3789 C.ar    1  UNL1       -0.0540
     18 C           5.9868   -0.1130    1.4863 C.ar    1  UNL1       -0.0612
     19 C           6.7688    0.1033    0.3537 C.ar    1  UNL1       -0.0617
     20 C           6.1607    0.2890   -0.8859 C.ar    1  UNL1       -0.0612
     21 C           4.7686    0.2571   -0.9929 C.ar    1  UNL1       -0.0540
     22 C           1.7593   -1.0687   -0.4475 C.ar    1  UNL1       -0.0026
     23 C           2.3257   -2.2405   -0.8978 C.ar    1  UNL1       -0.0160
     24 S           1.1535   -3.2899   -1.5711 S.2     1  UNL1       -0.1038
     25 C          -0.1136   -2.1763   -1.2544 C.ar    1  UNL1       -0.0160
     26 C           0.3089   -1.0790   -0.5394 C.ar    1  UNL1       -0.0019
     27 C          -0.5489   -0.0039   -0.1178 C.ar    1  UNL1        0.0017
     28 C          -3.9415    1.7237    0.1732 C.ar    1  UNL1        0.0459
     29 S          -4.7568    3.2541    0.3216 S.2     1  UNL1       -0.0945
     30 H          -7.1938    3.1663    0.2627 H       1  UNL1        0.0694
     31 H          -7.1411    0.5381    0.0201 H       1  UNL1        0.0629
     32 H          -6.2010   -2.0347    0.0207 H       1  UNL1        0.1036
     33 H          -2.2024   -2.9135    0.2297 H       1  UNL1        0.1036
     34 H           0.1279    3.2310    0.7185 H       1  UNL1        0.0836
     35 H           2.1955    2.0333    0.6419 H       1  UNL1        0.0630
     36 H           3.9977   -0.3168    2.2726 H       1  UNL1        0.0624
     37 H           6.4597   -0.2575    2.4543 H       1  UNL1        0.0618
     38 H           7.8523    0.1282    0.4374 H       1  UNL1        0.0618
     39 H           6.7691    0.4600   -1.7703 H       1  UNL1        0.0618
     40 H           4.3081    0.4066   -1.9677 H       1  UNL1        0.0624
     41 H           3.3681   -2.5302   -0.9126 H       1  UNL1        0.0700
     42 H          -1.0913   -2.4089   -1.6455 H       1  UNL1        0.0700
@<TRIPOS>BOND
     1     1     2   ar
     2     2     3   ar
     3     3     4   ar
     4     4     5   ar
     5     5     6   ar
     6     6     7   ar
     7     7     8   ar
     8     8     9   ar
     9     9    10   ar
    10    10    11   ar
    11    11    12   ar
    12    12    13   ar
    13    13    14   ar
    14    14    15   ar
    15    15    16    1
    16    16    17   ar
    17    17    18   ar
    18    18    19   ar
    19    19    20   ar
    20    20    21   ar
    21    15    22   ar
    22    22    23   ar
    23    23    24   ar
    24    24    25   ar
    25    25    26   ar
    26    26    27   ar
    27    10    28   ar
    28    28    29   ar
    29    29     1   ar
    30    28     3   ar
    31     8     4   ar
    32    27     9   ar
    33    27    13   ar
    34    21    16   ar
    35    26    22   ar
    36     1    30    1
    37     2    31    1
    38     5    32    1
    39     7    33    1
    40    12    34    1
    41    14    35    1
    42    17    36    1
    43    18    37    1
    44    19    38    1
    45    20    39    1
    46    21    40    1
    47    23    41    1
    48    25    42    1
