@<TRIPOS>MOLECULE
*****
 43 49 0 0 0
SMALL
GASTEIGER

@<TRIPOS>ATOM
      1 SI         -3.5103    3.8434   -0.9275 Si      1  UNL1        0.0000
      2 C          -1.7244    3.3147   -0.8615 C.2     1  UNL1        0.0000
      3 C          -1.6180    2.0084   -0.5534 C.ar    1  UNL1        0.0000
      4 C          -0.4109    1.2545   -0.4141 C.ar    1  UNL1        0.0000
      5 C           0.9523    1.5918   -0.5473 C.ar    1  UNL1        0.0000
      6 C           1.6966    0.4479   -0.2827 C.ar    1  UNL1        0.0000
      7 N           0.7949   -0.5675   -0.0294 N.ar    1  UNL1        0.0000
      8 C          -0.4824   -0.0864   -0.0898 C.ar    1  UNL1        0.0000
      9 C          -1.7080   -0.8397    0.1311 C.ar    1  UNL1        0.0000
     10 N          -1.5578   -2.1506    0.4412 N.ar    1  UNL1        0.0000
     11 C          -2.6770   -2.8852    0.6515 C.ar    1  UNL1        0.0000
     12 C          -3.9437   -2.2987    0.5518 C.ar    1  UNL1        0.0000
     13 C          -5.2811   -2.7562    0.7033 C.ar    1  UNL1        0.0000
     14 C          -6.0917   -1.6711    0.4705 C.ar    1  UNL1        0.0000
     15 O          -5.3483   -0.5730    0.1851 O.2     1  UNL1        0.0000
     16 C          -4.0331   -0.9433    0.2311 C.ar    1  UNL1        0.0000
     17 C          -2.9222   -0.1427    0.0040 C.ar    1  UNL1        0.0000
     18 C          -2.9225    1.2980   -0.3401 C.ar    1  UNL1        0.0000
     19 C          -4.0031    2.0919   -0.4933 C.2     1  UNL1        0.0000
     20 C           3.1308    0.2379   -0.3067 C.ar    1  UNL1        0.0000
     21 C           3.9930    0.7766   -1.2944 C.ar    1  UNL1        0.0000
     22 C           5.4154    0.5557   -1.3333 C.ar    1  UNL1        0.0000
     23 C           6.1258   -0.2186   -0.3879 C.ar    1  UNL1        0.0000
     24 C           5.2643   -0.7237    0.5771 C.ar    1  UNL1        0.0000
     25 C           5.6300   -1.4928    1.6509 C.ar    1  UNL1        0.0000
     26 N           4.4809   -1.7473    2.3683 N.ar    1  UNL1        0.0000
     27 C           3.3941   -1.1504    1.7615 C.ar    1  UNL1        0.0000
     28 C           3.8499   -0.5175    0.6289 C.ar    1  UNL1        0.0000
     29 H          -3.8566    4.8098    0.1426 H       1  UNL1        0.0000
     30 H          -3.9380    4.2287   -2.2940 H       1  UNL1        0.0000
     31 H          -0.9197    4.0059   -1.0526 H       1  UNL1        0.0000
     32 H           1.3632    2.5612   -0.7961 H       1  UNL1        0.0000
     33 H           1.0315   -1.5315    0.1645 H       1  UNL1        0.0000
     34 H          -2.5283   -3.9311    0.8958 H       1  UNL1        0.0000
     35 H          -5.6116   -3.7547    0.9517 H       1  UNL1        0.0000
     36 H          -7.1628   -1.5221    0.4689 H       1  UNL1        0.0000
     37 H          -5.0426    1.8250   -0.3946 H       1  UNL1        0.0000
     38 H           3.5589    1.3869   -2.0869 H       1  UNL1        0.0000
     39 H           5.9766    1.0169   -2.1465 H       1  UNL1        0.0000
     40 H           7.1942   -0.3736   -0.4247 H       1  UNL1        0.0000
     41 H           6.5859   -1.8727    1.9843 H       1  UNL1        0.0000
     42 H           4.4413   -2.2794    3.2278 H       1  UNL1        0.0000
     43 H           2.4143   -1.2252    2.2125 H       1  UNL1        0.0000
@<TRIPOS>BOND
     1     1     2    1
     2     2     3    2
     3     3     4   ar
     4     4     5   ar
     5     5     6   ar
     6     6     7   ar
     7     7     8   ar
     8     8     9   ar
     9     9    10   ar
    10    10    11   ar
    11    11    12   ar
    12    12    13   ar
    13    13    14   ar
    14    14    15   ar
    15    15    16   ar
    16    16    17   ar
    17    17    18   ar
    18    18    19    2
    19     6    20    1
    20    20    21   ar
    21    21    22   ar
    22    22    23   ar
    23    23    24   ar
    24    24    25   ar
    25    25    26   ar
    26    26    27   ar
    27    27    28   ar
    28    19     1    1
    29    28    20   ar
    30    18     3   ar
    31    28    24   ar
    32     8     4   ar
    33    17     9   ar
    34    16    12   ar
    35     1    29    1
    36     1    30    1
    37     2    31    1
    38     5    32    1
    39     7    33    1
    40    11    34    1
    41    13    35    1
    42    14    36    1
    43    19    37    1
    44    21    38    1
    45    22    39    1
    46    23    40    1
    47    25    41    1
    48    26    42    1
    49    27    43    1
