@<TRIPOS>MOLECULE
*****
 50 57 0 0 0
SMALL
GASTEIGER

@<TRIPOS>ATOM
      1 C           6.8525   -1.1182    0.2782 C.ar    1  UNL1        0.0028
      2 C           6.6984    0.0897    0.9220 C.ar    1  UNL1       -0.0360
      3 C           5.3406    0.3683    0.8046 C.ar    1  UNL1        0.0110
      4 C           4.6050    1.4764    1.2589 C.ar    1  UNL1        0.0296
      5 C           5.0552    2.5782    1.9109 C.ar    1  UNL1        0.1000
      6 O           3.9819    3.4036    2.0844 O.2     1  UNL1       -0.4698
      7 C           2.8910    2.7773    1.5309 C.ar    1  UNL1        0.1000
      8 C           3.2157    1.5324    1.0258 C.ar    1  UNL1        0.0288
      9 C           2.3715    0.5768    0.3651 C.ar    1  UNL1        0.0032
     10 C           0.8762    0.6077    0.1698 C.ar    1  UNL1       -0.0087
     11 C          -0.0070    1.5498    0.7485 C.ar    1  UNL1       -0.0528
     12 C          -1.3961    1.5615    0.5224 C.ar    1  UNL1       -0.0534
     13 C          -2.0041    0.6082   -0.2925 C.ar    1  UNL1       -0.0167
     14 C          -1.1937   -0.3704   -0.8637 C.ar    1  UNL1       -0.0456
     15 C           0.2054   -0.3770   -0.6241 C.ar    1  UNL1       -0.0060
     16 C           1.0851   -1.3570   -1.1231 C.ar    1  UNL1        0.0282
     17 C           0.7554   -2.4334   -1.9088 C.ar    1  UNL1        0.1000
     18 O           1.8716   -3.1596   -2.1893 O.2     1  UNL1       -0.4698
     19 C           2.9209   -2.5409   -1.5739 C.ar    1  UNL1        0.1001
     20 C           2.4923   -1.4277   -0.8903 C.ar    1  UNL1        0.0301
     21 C           3.2366   -0.5069   -0.1379 C.ar    1  UNL1        0.0180
     22 C           4.6414   -0.5986    0.1065 C.ar    1  UNL1        0.0557
     23 N           5.6226   -1.5224   -0.2023 N.ar    1  UNL1       -0.3601
     24 C          -3.4550    0.6258   -0.5295 C.ar    1  UNL1       -0.0102
     25 C          -3.9440    1.4148   -1.5870 C.ar    1  UNL1       -0.0534
     26 C          -5.3049    1.4720   -1.8684 C.ar    1  UNL1       -0.0606
     27 C          -6.2019    0.7400   -1.0961 C.ar    1  UNL1       -0.0540
     28 C          -5.7538   -0.0575   -0.0328 C.ar    1  UNL1       -0.0173
     29 C          -6.6748   -0.7888    0.7361 C.ar    1  UNL1       -0.0540
     30 C          -6.2515   -1.5862    1.7982 C.ar    1  UNL1       -0.0612
     31 C          -4.9001   -1.6627    2.1066 C.ar    1  UNL1       -0.0611
     32 C          -3.9721   -0.9419    1.3516 C.ar    1  UNL1       -0.0534
     33 C          -4.3688   -0.1246    0.2663 C.ar    1  UNL1       -0.0102
     34 H           7.7281   -1.7333    0.1174 H       1  UNL1        0.0807
     35 H           7.4769    0.6658    1.4031 H       1  UNL1        0.0639
     36 H           6.0043    2.9387    2.2789 H       1  UNL1        0.1036
     37 H           2.0028    3.3854    1.5761 H       1  UNL1        0.1036
     38 H           0.3511    2.2972    1.4426 H       1  UNL1        0.0624
     39 H          -2.0028    2.3242    1.0087 H       1  UNL1        0.0624
     40 H          -1.6521   -1.1354   -1.4857 H       1  UNL1        0.0630
     41 H          -0.1603   -2.8143   -2.3386 H       1  UNL1        0.1036
     42 H           3.8656   -3.0287   -1.7465 H       1  UNL1        0.1036
     43 H           5.4762   -2.3900   -0.6928 H       1  UNL1        0.1654
     44 H          -3.2524    1.9907   -2.1997 H       1  UNL1        0.0624
     45 H          -5.6663    2.0859   -2.6891 H       1  UNL1        0.0618
     46 H          -7.2626    0.7974   -1.3319 H       1  UNL1        0.0624
     47 H          -7.7384   -0.7416    0.5115 H       1  UNL1        0.0624
     48 H          -6.9774   -2.1449    2.3828 H       1  UNL1        0.0618
     49 H          -4.5624   -2.2811    2.9341 H       1  UNL1        0.0618
     50 H          -2.9218   -1.0248    1.6243 H       1  UNL1        0.0624
@<TRIPOS>BOND
     1     1     2   ar
     2     2     3   ar
     3     3     4   ar
     4     4     5   ar
     5     5     6   ar
     6     6     7   ar
     7     7     8   ar
     8     8     9   ar
     9     9    10   ar
    10    10    11   ar
    11    11    12   ar
    12    12    13   ar
    13    13    14   ar
    14    14    15   ar
    15    15    16   ar
    16    16    17   ar
    17    17    18   ar
    18    18    19   ar
    19    19    20   ar
    20    20    21   ar
    21    21    22   ar
    22    22    23   ar
    23    13    24    1
    24    24    25   ar
    25    25    26   ar
    26    26    27   ar
    27    27    28   ar
    28    28    29   ar
    29    29    30   ar
    30    30    31   ar
    31    31    32   ar
    32    32    33   ar
    33    23     1   ar
    34    33    24   ar
    35    22     3   ar
    36    33    28   ar
    37     8     4   ar
    38    21     9   ar
    39    15    10   ar
    40    20    16   ar
    41     1    34    1
    42     2    35    1
    43     5    36    1
    44     7    37    1
    45    11    38    1
    46    12    39    1
    47    14    40    1
    48    17    41    1
    49    19    42    1
    50    23    43    1
    51    25    44    1
    52    26    45    1
    53    27    46    1
    54    29    47    1
    55    30    48    1
    56    31    49    1
    57    32    50    1
