@<TRIPOS>MOLECULE
*****
 43 49 0 0 0
SMALL
GASTEIGER

@<TRIPOS>ATOM
      1 C           6.1067    0.6148    0.0275 C.ar    1  UNL1        0.0028
      2 C           5.7707    0.2961    1.3240 C.ar    1  UNL1       -0.0360
      3 C           4.3913    0.1218    1.2847 C.ar    1  UNL1        0.0110
      4 C           3.4988   -0.2040    2.3190 C.ar    1  UNL1        0.0296
      5 C           3.7694   -0.4773    3.6205 C.ar    1  UNL1        0.1000
      6 O           2.5826   -0.8014    4.2137 O.2     1  UNL1       -0.4698
      7 C           1.6074   -0.7101    3.2500 C.ar    1  UNL1        0.1000
      8 C           2.1221   -0.2842    2.0397 C.ar    1  UNL1        0.0288
      9 C           1.4414   -0.0780    0.7935 C.ar    1  UNL1        0.0032
     10 C          -0.0291   -0.0605    0.5358 C.ar    1  UNL1       -0.0088
     11 C          -1.0169   -0.0390    1.5458 C.ar    1  UNL1       -0.0528
     12 C          -2.3992   -0.0503    1.2874 C.ar    1  UNL1       -0.0520
     13 C          -2.9068   -0.0565   -0.0126 C.ar    1  UNL1        0.0010
     14 C          -1.9645   -0.0379   -1.0463 C.ar    1  UNL1       -0.0442
     15 C          -0.5599   -0.0172   -0.7895 C.ar    1  UNL1       -0.0084
     16 C           0.4431    0.0512   -1.7962 C.ar    1  UNL1       -0.0025
     17 C           0.1519    0.0768   -3.1441 C.ar    1  UNL1       -0.0160
     18 S           1.5590    0.1193   -4.1123 S.2     1  UNL1       -0.1038
     19 C           2.5725    0.1000   -2.7308 C.ar    1  UNL1       -0.0159
     20 C           1.8707    0.1222   -1.5444 C.ar    1  UNL1       -0.0006
     21 C           2.4521    0.1133   -0.2563 C.ar    1  UNL1        0.0155
     22 C           3.8509    0.2713    0.0197 C.ar    1  UNL1        0.0556
     23 N           4.9572    0.6174   -0.7371 N.ar    1  UNL1       -0.3601
     24 C          -4.3635   -0.0696   -0.2589 C.ar    1  UNL1        0.0710
     25 C          -4.9559    0.5582   -1.3558 C.ar    1  UNL1       -0.0357
     26 C          -6.3396    0.4971   -1.5152 C.ar    1  UNL1       -0.0583
     27 C          -7.1031   -0.1851   -0.5787 C.ar    1  UNL1       -0.0436
     28 C          -6.4479   -0.7754    0.4860 C.ar    1  UNL1        0.0283
     29 N          -5.1094   -0.7288    0.6656 N.ar    1  UNL1       -0.2550
     30 H           7.0604    0.8569   -0.4226 H       1  UNL1        0.0807
     31 H           6.4468    0.2238    2.1648 H       1  UNL1        0.0639
     32 H           4.6481   -0.5216    4.2465 H       1  UNL1        0.1036
     33 H           0.6374   -1.0150    3.6095 H       1  UNL1        0.1036
     34 H          -0.7464    0.0416    2.5909 H       1  UNL1        0.0624
     35 H          -3.0866   -0.0393    2.1334 H       1  UNL1        0.0624
     36 H          -2.3188   -0.0508   -2.0723 H       1  UNL1        0.0630
     37 H          -0.8060    0.0564   -3.6420 H       1  UNL1        0.0700
     38 H           3.6300    0.0445   -2.9173 H       1  UNL1        0.0700
     39 H           4.9377    0.8979   -1.7047 H       1  UNL1        0.1654
     40 H          -4.3618    1.1089   -2.0771 H       1  UNL1        0.0639
     41 H          -6.8151    0.9833   -2.3623 H       1  UNL1        0.0619
     42 H          -8.1809   -0.2519   -0.6728 H       1  UNL1        0.0633
     43 H          -6.9968   -1.3191    1.2495 H       1  UNL1        0.0830
@<TRIPOS>BOND
     1     1     2   ar
     2     2     3   ar
     3     3     4   ar
     4     4     5   ar
     5     5     6   ar
     6     6     7   ar
     7     7     8   ar
     8     8     9   ar
     9     9    10   ar
    10    10    11   ar
    11    11    12   ar
    12    12    13   ar
    13    13    14   ar
    14    14    15   ar
    15    15    16   ar
    16    16    17   ar
    17    17    18   ar
    18    18    19   ar
    19    19    20   ar
    20    20    21   ar
    21    21    22   ar
    22    22    23   ar
    23    13    24    1
    24    24    25   ar
    25    25    26   ar
    26    26    27   ar
    27    27    28   ar
    28    28    29   ar
    29    23     1   ar
    30    29    24   ar
    31    22     3   ar
    32     8     4   ar
    33    21     9   ar
    34    15    10   ar
    35    20    16   ar
    36     1    30    1
    37     2    31    1
    38     5    32    1
    39     7    33    1
    40    11    34    1
    41    12    35    1
    42    14    36    1
    43    17    37    1
    44    19    38    1
    45    23    39    1
    46    25    40    1
    47    26    41    1
    48    27    42    1
    49    28    43    1
