@<TRIPOS>MOLECULE
*****
 44 51 0 0 0
SMALL
GASTEIGER

@<TRIPOS>ATOM
      1 C          -6.2422   -0.3861    1.1943 C.ar    1  UNL1        0.0028
      2 C          -5.9834    0.8570    0.6621 C.ar    1  UNL1       -0.0360
      3 C          -4.6141    0.8439    0.4178 C.ar    1  UNL1        0.0110
      4 C          -3.7883    1.8484   -0.1128 C.ar    1  UNL1        0.0296
      5 C          -4.1323    3.0802   -0.5671 C.ar    1  UNL1        0.1000
      6 O          -2.9921    3.6602   -1.0457 O.2     1  UNL1       -0.4698
      7 C          -1.9700    2.7602   -0.8631 C.ar    1  UNL1        0.1000
      8 C          -2.4060    1.6129   -0.2272 C.ar    1  UNL1        0.0288
      9 C          -1.6587    0.4409    0.1285 C.ar    1  UNL1        0.0032
     10 C          -0.1791    0.2467    0.1010 C.ar    1  UNL1       -0.0088
     11 C           0.7603    1.2874   -0.0825 C.ar    1  UNL1       -0.0528
     12 C           2.1509    1.0863   -0.1362 C.ar    1  UNL1       -0.0528
     13 C           2.7051   -0.1817    0.0133 C.ar    1  UNL1       -0.0071
     14 C           1.8243   -1.2388    0.2475 C.ar    1  UNL1       -0.0451
     15 C           0.4140   -1.0356    0.3131 C.ar    1  UNL1       -0.0085
     16 C          -0.5352   -2.0569    0.5947 C.ar    1  UNL1       -0.0025
     17 C          -0.1791   -3.3714    0.8126 C.ar    1  UNL1       -0.0160
     18 S          -1.5350   -4.3748    1.0846 S.2     1  UNL1       -0.1038
     19 C          -2.6125   -3.0537    0.9110 C.ar    1  UNL1       -0.0159
     20 C          -1.9674   -1.8522    0.7090 C.ar    1  UNL1       -0.0006
     21 C          -2.6082   -0.6045    0.5355 C.ar    1  UNL1        0.0155
     22 C          -4.0086   -0.3609    0.7284 C.ar    1  UNL1        0.0556
     23 N          -5.0596   -1.0965    1.2487 N.ar    1  UNL1       -0.3601
     24 C           4.1488   -0.3852   -0.0478 C.ar    1  UNL1        0.0621
     25 S           5.0174   -1.4953    0.9699 S.2     1  UNL1       -0.0923
     26 C           6.5648   -1.0986    0.2793 C.ar    1  UNL1       -0.0129
     27 C           6.3590   -0.1615   -0.6690 C.ar    1  UNL1        0.0278
     28 C           7.0755    0.6030   -1.6021 C.ar    1  UNL1       -0.0156
     29 C           6.1067    1.3792   -2.2508 C.ar    1  UNL1        0.0932
     30 O           4.8160    1.1698   -1.8007 O.2     1  UNL1       -0.4618
     31 C           5.0522    0.2264   -0.8448 C.ar    1  UNL1        0.1495
     32 H          -7.1604   -0.8293    1.5563 H       1  UNL1        0.0807
     33 H          -6.7008    1.6498    0.5004 H       1  UNL1        0.0639
     34 H          -5.0402    3.6578   -0.6570 H       1  UNL1        0.1036
     35 H          -1.0341    3.1038   -1.2746 H       1  UNL1        0.1036
     36 H           0.4426    2.3212   -0.1364 H       1  UNL1        0.0624
     37 H           2.7918    1.9548   -0.2804 H       1  UNL1        0.0624
     38 H           2.2306   -2.2371    0.3796 H       1  UNL1        0.0630
     39 H           0.7999   -3.8274    0.8167 H       1  UNL1        0.0700
     40 H          -3.6613   -3.2876    0.9471 H       1  UNL1        0.0700
     41 H          -4.9809   -2.0072    1.6727 H       1  UNL1        0.1654
     42 H           7.4737   -1.5744    0.6188 H       1  UNL1        0.0701
     43 H           8.1371    0.6130   -1.8025 H       1  UNL1        0.0655
     44 H           6.1791    2.1140   -3.0421 H       1  UNL1        0.1030
@<TRIPOS>BOND
     1     1     2   ar
     2     2     3   ar
     3     3     4   ar
     4     4     5   ar
     5     5     6   ar
     6     6     7   ar
     7     7     8   ar
     8     8     9   ar
     9     9    10   ar
    10    10    11   ar
    11    11    12   ar
    12    12    13   ar
    13    13    14   ar
    14    14    15   ar
    15    15    16   ar
    16    16    17   ar
    17    17    18   ar
    18    18    19   ar
    19    19    20   ar
    20    20    21   ar
    21    21    22   ar
    22    22    23   ar
    23    13    24    1
    24    24    25   ar
    25    25    26   ar
    26    26    27   ar
    27    27    28   ar
    28    28    29   ar
    29    29    30   ar
    30    30    31   ar
    31    23     1   ar
    32    31    24   ar
    33    22     3   ar
    34    31    27   ar
    35     8     4   ar
    36    21     9   ar
    37    15    10   ar
    38    20    16   ar
    39     1    32    1
    40     2    33    1
    41     5    34    1
    42     7    35    1
    43    11    36    1
    44    12    37    1
    45    14    38    1
    46    17    39    1
    47    19    40    1
    48    23    41    1
    49    26    42    1
    50    28    43    1
    51    29    44    1
