@<TRIPOS>MOLECULE
*****
 37 43 0 0 0
SMALL
GASTEIGER

@<TRIPOS>ATOM
      1 C          -5.1176    0.3737    2.9096 C.ar    1  UNL1        0.0933
      2 C          -5.5958    0.7296    1.6588 C.ar    1  UNL1       -0.0153
      3 C          -4.4799    0.6199    0.8400 C.ar    1  UNL1        0.0345
      4 C          -4.2555    0.8326   -0.5414 C.ar    1  UNL1        0.0314
      5 C          -5.1408    1.2298   -1.4991 C.ar    1  UNL1        0.1001
      6 O          -4.4702    1.3011   -2.7016 O.2     1  UNL1       -0.4698
      7 C          -3.1570    0.9425   -2.4773 C.ar    1  UNL1        0.1001
      8 C          -3.0099    0.6518   -1.1526 C.ar    1  UNL1        0.0320
      9 C          -1.8515    0.2366   -0.4415 C.ar    1  UNL1        0.0423
     10 C          -0.5270   -0.0111   -0.8023 C.ar    1  UNL1        0.0288
     11 C           0.2677    0.0230   -1.9592 C.ar    1  UNL1       -0.0498
     12 C           1.6258   -0.3222   -1.8551 C.ar    1  UNL1       -0.0527
     13 C           2.2034   -0.7004   -0.6310 C.ar    1  UNL1       -0.0072
     14 C           1.4167   -0.7353    0.5317 C.ar    1  UNL1       -0.0105
     15 C           0.0717   -0.3884    0.4063 C.ar    1  UNL1        0.1370
     16 O          -0.8293   -0.3720    1.4418 O.2     1  UNL1       -0.4510
     17 C          -2.0161    0.0160    0.9056 C.ar    1  UNL1        0.1795
     18 C          -3.3948    0.2173    1.5774 C.ar    1  UNL1        0.1781
     19 O          -3.7822    0.0609    2.8721 O.2     1  UNL1       -0.4592
     20 C           3.6234   -1.0448   -0.5492 C.ar    1  UNL1        0.0277
     21 S           4.3077   -2.2455   -1.5900 S.2     1  UNL1       -0.0949
     22 C           5.8807   -2.0989   -0.9021 C.ar    1  UNL1       -0.0094
     23 C           5.8791   -1.1636    0.0918 C.ar    1  UNL1        0.0269
     24 S           7.2018   -0.5753    1.1623 S.2     1  UNL1       -0.0961
     25 C           5.9702    0.4753    1.8500 C.ar    1  UNL1       -0.0231
     26 C           4.6868    0.3684    1.3010 C.ar    1  UNL1       -0.0459
     27 C           4.6151   -0.6007    0.2643 C.ar    1  UNL1        0.0040
     28 H          -5.5753    0.2949    3.8866 H       1  UNL1        0.1030
     29 H          -6.6076    1.0189    1.4164 H       1  UNL1        0.0655
     30 H          -6.1896    1.4877   -1.5319 H       1  UNL1        0.1036
     31 H          -2.5192    0.9572   -3.3488 H       1  UNL1        0.1036
     32 H          -0.1443    0.3104   -2.9212 H       1  UNL1        0.0625
     33 H           2.2373   -0.2827   -2.7560 H       1  UNL1        0.0624
     34 H           1.8197   -1.0291    1.4945 H       1  UNL1        0.0661
     35 H           6.7204   -2.6882   -1.2436 H       1  UNL1        0.0705
     36 H           6.2788    1.1371    2.6479 H       1  UNL1        0.0694
     37 H           3.8571    0.9737    1.6457 H       1  UNL1        0.0629
@<TRIPOS>BOND
     1     1     2   ar
     2     2     3   ar
     3     3     4   ar
     4     4     5   ar
     5     5     6   ar
     6     6     7   ar
     7     7     8   ar
     8     8     9   ar
     9     9    10   ar
    10    10    11   ar
    11    11    12   ar
    12    12    13   ar
    13    13    14   ar
    14    14    15   ar
    15    15    16   ar
    16    16    17   ar
    17    17    18   ar
    18    18    19   ar
    19    13    20    1
    20    20    21   ar
    21    21    22   ar
    22    22    23   ar
    23    23    24   ar
    24    24    25   ar
    25    25    26   ar
    26    26    27   ar
    27    19     1   ar
    28    27    20   ar
    29    18     3   ar
    30    27    23   ar
    31     8     4   ar
    32    17     9   ar
    33    15    10   ar
    34     1    28    1
    35     2    29    1
    36     5    30    1
    37     7    31    1
    38    11    32    1
    39    12    33    1
    40    14    34    1
    41    22    35    1
    42    25    36    1
    43    26    37    1
