@<TRIPOS>MOLECULE
*****
 33 38 0 0 0
SMALL
GASTEIGER

@<TRIPOS>ATOM
      1 C          -5.4267   -1.6807    1.0164 C.ar    1  UNL1        0.0932
      2 C          -5.5228   -0.4247    0.4406 C.ar    1  UNL1       -0.0154
      3 C          -4.1989   -0.0489    0.2590 C.ar    1  UNL1        0.0320
      4 C          -3.5714    1.0959   -0.2707 C.ar    1  UNL1        0.0312
      5 C          -4.1614    2.2138   -0.7798 C.ar    1  UNL1        0.1001
      6 O          -3.1669    3.0745   -1.1817 O.2     1  UNL1       -0.4698
      7 C          -1.9549    2.4740   -0.9144 C.ar    1  UNL1        0.1000
      8 C          -2.1818    1.2494   -0.3507 C.ar    1  UNL1        0.0295
      9 C          -1.2481    0.2505    0.1015 C.ar    1  UNL1        0.0127
     10 C           0.1712    0.2581    0.0883 C.ar    1  UNL1        0.0158
     11 C           1.1382    1.1758   -0.3395 C.ar    1  UNL1        0.0372
     12 N           2.4618    0.9133   -0.2281 N.ar    1  UNL1       -0.2512
     13 C           2.9007   -0.2563    0.3058 C.ar    1  UNL1        0.1090
     14 C           2.0059   -1.2223    0.7553 C.ar    1  UNL1       -0.0183
     15 C           0.6351   -0.9476    0.6386 C.ar    1  UNL1        0.0242
     16 S          -0.6620   -1.9947    1.1280 S.2     1  UNL1       -0.0844
     17 C          -1.8200   -0.8836    0.6259 C.ar    1  UNL1        0.0640
     18 C          -3.3619   -1.0354    0.7062 C.ar    1  UNL1        0.1497
     19 O          -4.1196   -2.0617    1.1824 O.2     1  UNL1       -0.4618
     20 C           4.3729   -0.4581    0.3884 C.ar    1  UNL1        0.1812
     21 N           5.1737    0.5164   -0.0643 N.ar    1  UNL1       -0.2145
     22 C           6.4748    0.2703    0.0398 C.ar    1  UNL1        0.1201
     23 N           7.0252   -0.8315    0.5417 N.ar    1  UNL1       -0.2241
     24 C           6.1405   -1.7308    0.9605 C.ar    1  UNL1        0.1201
     25 N           4.8158   -1.6111    0.9146 N.ar    1  UNL1       -0.2145
     26 H          -6.1578   -2.4033    1.3531 H       1  UNL1        0.1030
     27 H          -6.4331    0.1056    0.2034 H       1  UNL1        0.0655
     28 H          -5.1733    2.5608   -0.9322 H       1  UNL1        0.1036
     29 H          -1.0943    3.0638   -1.1910 H       1  UNL1        0.1036
     30 H           0.9033    2.1369   -0.7791 H       1  UNL1        0.0836
     31 H           2.3494   -2.1587    1.1828 H       1  UNL1        0.0651
     32 H           7.1498    1.0402   -0.3182 H       1  UNL1        0.1048
     33 H           6.5365   -2.6498    1.3796 H       1  UNL1        0.1048
@<TRIPOS>BOND
     1     1     2   ar
     2     2     3   ar
     3     3     4   ar
     4     4     5   ar
     5     5     6   ar
     6     6     7   ar
     7     7     8   ar
     8     8     9   ar
     9     9    10   ar
    10    10    11   ar
    11    11    12   ar
    12    12    13   ar
    13    13    14   ar
    14    14    15   ar
    15    15    16   ar
    16    16    17   ar
    17    17    18   ar
    18    18    19   ar
    19    13    20    1
    20    20    21   ar
    21    21    22   ar
    22    22    23   ar
    23    23    24   ar
    24    24    25   ar
    25    19     1   ar
    26    25    20   ar
    27    18     3   ar
    28     8     4   ar
    29    17     9   ar
    30    15    10   ar
    31     1    26    1
    32     2    27    1
    33     5    28    1
    34     7    29    1
    35    11    30    1
    36    14    31    1
    37    22    32    1
    38    24    33    1
