@<TRIPOS>MOLECULE
*****
 42 48 0 0 0
SMALL
GASTEIGER

@<TRIPOS>ATOM
      1 C          -6.2956   -1.2967   -1.0222 C.ar    1  UNL1       -0.0231
      2 C          -6.2541    0.0158   -0.6074 C.ar    1  UNL1       -0.0463
      3 C          -4.9230    0.3849   -0.3559 C.ar    1  UNL1        0.0005
      4 C          -4.4869    1.6645    0.0889 C.ar    1  UNL1        0.0287
      5 C          -5.1884    2.7944    0.3706 C.ar    1  UNL1        0.1000
      6 O          -4.2860    3.7510    0.7620 O.2     1  UNL1       -0.4698
      7 C          -3.0361    3.1826    0.7120 C.ar    1  UNL1        0.1000
      8 C          -3.1180    1.8729    0.2940 C.ar    1  UNL1        0.0282
      9 C          -2.0598    0.9594    0.1164 C.ar    1  UNL1       -0.0055
     10 C          -0.6799    1.2094    0.3357 C.ar    1  UNL1       -0.0456
     11 C           0.2812    0.2124    0.1221 C.ar    1  UNL1       -0.0160
     12 C           1.6875    0.4836    0.3506 C.ar    1  UNL1       -0.0441
     13 C           2.7844   -0.4265    0.1781 C.ar    1  UNL1        0.0116
     14 C           4.2046   -0.1067    0.4233 C.ar    1  UNL1        0.0717
     15 C           4.6429    1.1468    0.8607 C.ar    1  UNL1       -0.0357
     16 C           6.0037    1.3788    1.0723 C.ar    1  UNL1       -0.0583
     17 C           6.9118    0.3582    0.8455 C.ar    1  UNL1       -0.0436
     18 C           6.4158   -0.8548    0.4150 C.ar    1  UNL1        0.0283
     19 N           5.1023   -1.0990    0.2043 N.ar    1  UNL1       -0.2550
     20 C           2.2691   -1.6598   -0.2602 C.ar    1  UNL1        0.0296
     21 C           2.9413   -2.8225   -0.5551 C.ar    1  UNL1        0.1000
     22 O           2.0673   -3.7956   -0.9488 O.2     1  UNL1       -0.4698
     23 C           0.8153   -3.2586   -0.9089 C.ar    1  UNL1        0.1000
     24 C           0.8844   -1.9534   -0.4936 C.ar    1  UNL1        0.0282
     25 C          -0.1920   -1.0575   -0.3235 C.ar    1  UNL1       -0.0065
     26 C          -1.5677   -1.3219   -0.5468 C.ar    1  UNL1       -0.0445
     27 C          -2.5249   -0.3161   -0.3300 C.ar    1  UNL1       -0.0023
     28 C          -3.9354   -0.5732   -0.5546 C.ar    1  UNL1        0.0277
     29 S          -4.7410   -2.0209   -1.0898 S.2     1  UNL1       -0.0960
     30 H          -7.1671   -1.8771   -1.2928 H       1  UNL1        0.0694
     31 H          -7.1323    0.6394   -0.5021 H       1  UNL1        0.0629
     32 H          -6.2253    3.0966    0.3591 H       1  UNL1        0.1036
     33 H          -2.2285    3.8403    1.0003 H       1  UNL1        0.1036
     34 H          -0.3666    2.1937    0.6755 H       1  UNL1        0.0630
     35 H           1.9170    1.4943    0.6902 H       1  UNL1        0.0630
     36 H           3.9542    1.9621    1.0457 H       1  UNL1        0.0639
     37 H           6.3458    2.3524    1.4121 H       1  UNL1        0.0619
     38 H           7.9747    0.5030    0.9994 H       1  UNL1        0.0633
     39 H           7.0776   -1.6938    0.2200 H       1  UNL1        0.0830
     40 H           3.9781   -3.1266   -0.5442 H       1  UNL1        0.1036
     41 H           0.0178   -3.9271   -1.1995 H       1  UNL1        0.1036
     42 H          -1.8681   -2.3088   -0.8862 H       1  UNL1        0.0630
@<TRIPOS>BOND
     1     1     2   ar
     2     2     3   ar
     3     3     4   ar
     4     4     5   ar
     5     5     6   ar
     6     6     7   ar
     7     7     8   ar
     8     8     9   ar
     9     9    10   ar
    10    10    11   ar
    11    11    12   ar
    12    12    13   ar
    13    13    14    1
    14    14    15   ar
    15    15    16   ar
    16    16    17   ar
    17    17    18   ar
    18    18    19   ar
    19    13    20   ar
    20    20    21   ar
    21    21    22   ar
    22    22    23   ar
    23    23    24   ar
    24    24    25   ar
    25    25    26   ar
    26    26    27   ar
    27    27    28   ar
    28    28    29   ar
    29    29     1   ar
    30    28     3   ar
    31     8     4   ar
    32    27     9   ar
    33    25    11   ar
    34    19    14   ar
    35    24    20   ar
    36     1    30    1
    37     2    31    1
    38     5    32    1
    39     7    33    1
    40    10    34    1
    41    12    35    1
    42    15    36    1
    43    16    37    1
    44    17    38    1
    45    18    39    1
    46    21    40    1
    47    23    41    1
    48    26    42    1
