@<TRIPOS>MOLECULE
*****
 36 41 0 0 0
SMALL
GASTEIGER

@<TRIPOS>ATOM
      1 C          -4.9692    1.9155    0.5360 C.ar    1  UNL1        0.0028
      2 C          -5.2394    0.6408    0.0817 C.ar    1  UNL1       -0.0360
      3 C          -3.9865    0.0616   -0.0888 C.ar    1  UNL1        0.0110
      4 C          -3.6348   -1.2341   -0.5343 C.ar    1  UNL1        0.0296
      5 C          -4.4001   -2.2860   -0.9234 C.ar    1  UNL1        0.1000
      6 O          -3.5463   -3.3080   -1.2597 O.2     1  UNL1       -0.4698
      7 C          -2.2621   -2.8545   -1.0670 C.ar    1  UNL1        0.1000
      8 C          -2.2726   -1.5553   -0.6114 C.ar    1  UNL1        0.0283
      9 C          -1.1645   -0.7362   -0.2951 C.ar    1  UNL1       -0.0046
     10 C           0.2026   -1.0824   -0.3809 C.ar    1  UNL1       -0.0454
     11 C           1.1913   -0.1503   -0.0280 C.ar    1  UNL1       -0.0138
     12 C           2.5567   -0.4648   -0.1027 C.ar    1  UNL1       -0.0274
     13 C           3.5053    0.4901    0.2571 C.ar    1  UNL1        0.0796
     14 N           3.1520    1.7255    0.6813 N.ar    1  UNL1       -0.2538
     15 C           1.8323    2.0158    0.7488 C.ar    1  UNL1        0.0360
     16 C           0.8083    1.1328    0.4122 C.ar    1  UNL1        0.0009
     17 C          -0.5540    1.4858    0.5005 C.ar    1  UNL1       -0.0429
     18 C          -1.5565    0.5640    0.1509 C.ar    1  UNL1        0.0073
     19 C          -2.9475    0.9197    0.2394 C.ar    1  UNL1        0.0550
     20 N          -3.6006    2.0757    0.6280 N.ar    1  UNL1       -0.3601
     21 C           4.9487    0.2170    0.1989 C.ar    1  UNL1        0.0570
     22 C           5.6312   -0.9281   -0.1850 C.ar    1  UNL1        0.0439
     23 N           7.0122   -0.8775   -0.1312 N.ar    1  UNL1       -0.2550
     24 C           7.3775    0.3094    0.2948 C.ar    1  UNL1        0.0653
     25 S           6.1165    1.4088    0.6476 S.2     1  UNL1       -0.0739
     26 H          -5.6301    2.7291    0.8043 H       1  UNL1        0.0807
     27 H          -6.2181    0.2154   -0.0931 H       1  UNL1        0.0639
     28 H          -5.4553   -2.4926   -1.0234 H       1  UNL1        0.1036
     29 H          -1.4894   -3.5733   -1.2991 H       1  UNL1        0.1036
     30 H           0.4858   -2.0749   -0.7217 H       1  UNL1        0.0630
     31 H           2.8622   -1.4493   -0.4402 H       1  UNL1        0.0645
     32 H           1.6170    3.0231    1.0966 H       1  UNL1        0.0836
     33 H          -0.8200    2.4821    0.8431 H       1  UNL1        0.0631
     34 H          -3.1414    2.9208    0.9365 H       1  UNL1        0.1654
     35 H           5.1717   -1.8495   -0.5203 H       1  UNL1        0.0842
     36 H           8.4170    0.5838    0.4182 H       1  UNL1        0.0907
@<TRIPOS>BOND
     1     1     2   ar
     2     2     3   ar
     3     3     4   ar
     4     4     5   ar
     5     5     6   ar
     6     6     7   ar
     7     7     8   ar
     8     8     9   ar
     9     9    10   ar
    10    10    11   ar
    11    11    12   ar
    12    12    13   ar
    13    13    14   ar
    14    14    15   ar
    15    15    16   ar
    16    16    17   ar
    17    17    18   ar
    18    18    19   ar
    19    19    20   ar
    20    13    21    1
    21    21    22   ar
    22    22    23   ar
    23    23    24   ar
    24    24    25   ar
    25    20     1   ar
    26    25    21   ar
    27    19     3   ar
    28     8     4   ar
    29    18     9   ar
    30    16    11   ar
    31     1    26    1
    32     2    27    1
    33     5    28    1
    34     7    29    1
    35    10    30    1
    36    12    31    1
    37    15    32    1
    38    17    33    1
    39    20    34    1
    40    22    35    1
    41    24    36    1
