@<TRIPOS>MOLECULE
*****
 40 45 0 0 0
SMALL
GASTEIGER

@<TRIPOS>ATOM
      1 C           6.1424    0.6633   -0.6441 C.ar    1  UNL1        0.0028
      2 C           5.9131   -0.6727   -0.3916 C.ar    1  UNL1       -0.0360
      3 C           4.5289   -0.7745   -0.2533 C.ar    1  UNL1        0.0085
      4 C           3.7233   -1.9127    0.0149 C.ar    1  UNL1       -0.0011
      5 C           4.2069   -3.1758    0.1928 C.ar    1  UNL1       -0.0160
      6 S           2.8867   -4.2326    0.4919 S.2     1  UNL1       -0.1038
      7 C           1.7382   -2.9467    0.3683 C.ar    1  UNL1       -0.0159
      8 C           2.3181   -1.7207    0.1038 C.ar    1  UNL1       -0.0004
      9 C           1.5926   -0.4902   -0.0473 C.ar    1  UNL1        0.0183
     10 C           2.4744    0.6128   -0.3158 C.ar    1  UNL1        0.0087
     11 C           1.9459    1.8977   -0.4934 C.ar    1  UNL1       -0.0513
     12 C           0.5722    2.1008   -0.4091 C.ar    1  UNL1       -0.0519
     13 C          -0.3022    1.0361   -0.1474 C.ar    1  UNL1        0.0016
     14 C          -1.6844    1.2762   -0.0698 C.ar    1  UNL1       -0.0434
     15 C          -2.5854    0.2419    0.1853 C.ar    1  UNL1        0.0008
     16 C          -2.0217   -1.0127    0.3550 C.ar    1  UNL1        0.0360
     17 N          -0.6947   -1.2812    0.2865 N.ar    1  UNL1       -0.2537
     18 C           0.1813   -0.2798    0.0383 C.ar    1  UNL1        0.0793
     19 C          -4.0342    0.4679    0.2682 C.ar    1  UNL1       -0.0164
     20 C          -4.9323   -0.2990   -0.4934 C.ar    1  UNL1       -0.0540
     21 C          -6.3111   -0.0841   -0.4142 C.ar    1  UNL1       -0.0612
     22 C          -6.8160    0.9016    0.4294 C.ar    1  UNL1       -0.0617
     23 C          -5.9441    1.6730    1.1930 C.ar    1  UNL1       -0.0612
     24 C          -4.5655    1.4581    1.1121 C.ar    1  UNL1       -0.0540
     25 C           3.8919    0.4419   -0.4095 C.ar    1  UNL1        0.0550
     26 N           4.9315    1.3228   -0.6535 N.ar    1  UNL1       -0.3601
     27 H           7.0613    1.2071   -0.8188 H       1  UNL1        0.0807
     28 H           6.6646   -1.4470   -0.3222 H       1  UNL1        0.0639
     29 H           5.2221   -3.5447    0.1687 H       1  UNL1        0.0700
     30 H           0.6960   -3.1953    0.5030 H       1  UNL1        0.0700
     31 H           2.5805    2.7544   -0.6982 H       1  UNL1        0.0624
     32 H           0.1849    3.1081   -0.5514 H       1  UNL1        0.0624
     33 H          -2.0659    2.2842   -0.2242 H       1  UNL1        0.0631
     34 H          -2.6394   -1.8815    0.5704 H       1  UNL1        0.0836
     35 H          -4.5627   -1.0675   -1.1702 H       1  UNL1        0.0624
     36 H          -6.9890   -0.6860   -1.0141 H       1  UNL1        0.0618
     37 H          -7.8883    1.0681    0.4920 H       1  UNL1        0.0618
     38 H          -6.3354    2.4407    1.8557 H       1  UNL1        0.0618
     39 H          -3.9051    2.0651    1.7285 H       1  UNL1        0.0624
     40 H           4.8205    2.3132   -0.8164 H       1  UNL1        0.1654
@<TRIPOS>BOND
     1     1     2   ar
     2     2     3   ar
     3     3     4   ar
     4     4     5   ar
     5     5     6   ar
     6     6     7   ar
     7     7     8   ar
     8     8     9   ar
     9     9    10   ar
    10    10    11   ar
    11    11    12   ar
    12    12    13   ar
    13    13    14   ar
    14    14    15   ar
    15    15    16   ar
    16    16    17   ar
    17    17    18   ar
    18    15    19    1
    19    19    20   ar
    20    20    21   ar
    21    21    22   ar
    22    22    23   ar
    23    23    24   ar
    24    10    25   ar
    25    25    26   ar
    26    26     1   ar
    27    25     3   ar
    28     8     4   ar
    29    18     9   ar
    30    24    19   ar
    31    18    13   ar
    32     1    27    1
    33     2    28    1
    34     5    29    1
    35     7    30    1
    36    11    31    1
    37    12    32    1
    38    14    33    1
    39    16    34    1
    40    20    35    1
    41    21    36    1
    42    22    37    1
    43    23    38    1
    44    24    39    1
    45    26    40    1
