@<TRIPOS>MOLECULE
*****
 44 51 0 0 0
SMALL
GASTEIGER

@<TRIPOS>ATOM
      1 C          -6.5172    0.5117    0.0428 C.ar    1  UNL1        0.0932
      2 C          -6.2836   -0.8408    0.1870 C.ar    1  UNL1       -0.0155
      3 C          -4.8946   -0.9369    0.1676 C.ar    1  UNL1        0.0290
      4 C          -4.0173   -2.0342    0.3137 C.ar    1  UNL1        0.0005
      5 C          -4.4458   -3.3085    0.5437 C.ar    1  UNL1       -0.0159
      6 S          -3.0744   -4.3064    0.7859 S.2     1  UNL1       -0.1038
      7 C          -1.9875   -2.9748    0.5880 C.ar    1  UNL1       -0.0160
      8 C          -2.6090   -1.7879    0.2491 C.ar    1  UNL1       -0.0018
      9 C          -1.9265   -0.5309    0.0075 C.ar    1  UNL1        0.0023
     10 C          -0.4522   -0.2453   -0.1761 C.ar    1  UNL1       -0.0087
     11 C           0.5506   -1.2257   -0.3502 C.ar    1  UNL1       -0.0528
     12 C           1.9216   -0.9293   -0.4797 C.ar    1  UNL1       -0.0529
     13 C           2.3886    0.3847   -0.4741 C.ar    1  UNL1       -0.0086
     14 C           1.4428    1.4023   -0.3624 C.ar    1  UNL1       -0.0450
     15 C           0.0617    1.0939   -0.2418 C.ar    1  UNL1       -0.0060
     16 C          -0.9601    2.0636   -0.2070 C.ar    1  UNL1        0.0283
     17 C          -0.8248    3.4283   -0.2772 C.ar    1  UNL1        0.1000
     18 O          -2.0538    4.0196   -0.2442 O.2     1  UNL1       -0.4698
     19 C          -2.9804    3.0211   -0.1564 C.ar    1  UNL1        0.1001
     20 C          -2.3547    1.7985   -0.1307 C.ar    1  UNL1        0.0317
     21 C          -2.9319    0.5306   -0.0339 C.ar    1  UNL1        0.0369
     22 C          -4.3198    0.3004    0.0225 C.ar    1  UNL1        0.1438
     23 O          -5.3462    1.2102   -0.0526 O.2     1  UNL1       -0.4623
     24 C           3.8264    0.6662   -0.6034 C.ar    1  UNL1        0.0468
     25 S           4.3672    1.9052   -1.6851 S.2     1  UNL1       -0.0923
     26 C           6.0198    1.6368   -1.3230 C.ar    1  UNL1        0.0038
     27 C           6.1713    0.6261   -0.4114 C.ar    1  UNL1        0.0968
     28 N           7.3893    0.2169    0.0404 N.ar    1  UNL1       -0.2514
     29 C           7.2523   -0.7974    0.9374 C.ar    1  UNL1        0.0464
     30 C           6.0341   -1.3539    1.3451 C.ar    1  UNL1        0.0464
     31 N           4.8063   -0.9643    0.9052 N.ar    1  UNL1       -0.2508
     32 C           4.9095    0.0577    0.0035 C.ar    1  UNL1        0.1039
     33 H          -7.4150    1.1130   -0.0029 H       1  UNL1        0.1030
     34 H          -7.0305   -1.6131    0.2952 H       1  UNL1        0.0655
     35 H          -5.4474   -3.7089    0.6140 H       1  UNL1        0.0700
     36 H          -0.9502   -3.1912    0.7766 H       1  UNL1        0.0700
     37 H           0.2950   -2.2732   -0.4504 H       1  UNL1        0.0624
     38 H           2.6201   -1.7566   -0.6007 H       1  UNL1        0.0624
     39 H           1.7631    2.4405   -0.3700 H       1  UNL1        0.0630
     40 H           0.0091    4.1113   -0.3551 H       1  UNL1        0.1036
     41 H          -4.0083    3.3537   -0.1201 H       1  UNL1        0.1036
     42 H           6.7942    2.2250   -1.7932 H       1  UNL1        0.0715
     43 H           8.1865   -1.1746    1.3443 H       1  UNL1        0.0845
     44 H           6.0216   -2.1635    2.0698 H       1  UNL1        0.0845
@<TRIPOS>BOND
     1     1     2   ar
     2     2     3   ar
     3     3     4   ar
     4     4     5   ar
     5     5     6   ar
     6     6     7   ar
     7     7     8   ar
     8     8     9   ar
     9     9    10   ar
    10    10    11   ar
    11    11    12   ar
    12    12    13   ar
    13    13    14   ar
    14    14    15   ar
    15    15    16   ar
    16    16    17   ar
    17    17    18   ar
    18    18    19   ar
    19    19    20   ar
    20    20    21   ar
    21    21    22   ar
    22    22    23   ar
    23    13    24    1
    24    24    25   ar
    25    25    26   ar
    26    26    27   ar
    27    27    28   ar
    28    28    29   ar
    29    29    30   ar
    30    30    31   ar
    31    31    32   ar
    32    23     1   ar
    33    32    24   ar
    34    22     3   ar
    35    32    27   ar
    36     8     4   ar
    37    21     9   ar
    38    15    10   ar
    39    20    16   ar
    40     1    33    1
    41     2    34    1
    42     5    35    1
    43     7    36    1
    44    11    37    1
    45    12    38    1
    46    14    39    1
    47    17    40    1
    48    19    41    1
    49    26    42    1
    50    29    43    1
    51    30    44    1
