@<TRIPOS>MOLECULE
*****
 42 48 0 0 0
SMALL
GASTEIGER

@<TRIPOS>ATOM
      1 C           6.0810    1.0310    0.3843 C.ar    1  UNL1        0.0932
      2 C           6.0301   -0.3256    0.1353 C.ar    1  UNL1       -0.0155
      3 C           4.6682   -0.5829    0.0009 C.ar    1  UNL1        0.0290
      4 C           3.9505   -1.7627   -0.2968 C.ar    1  UNL1        0.0005
      5 C           4.5531   -2.9611   -0.5435 C.ar    1  UNL1       -0.0159
      6 S           3.3450   -4.0986   -0.9677 S.2     1  UNL1       -0.1038
      7 C           2.0859   -2.9206   -0.8137 C.ar    1  UNL1       -0.0160
      8 C           2.5228   -1.6871   -0.3696 C.ar    1  UNL1       -0.0017
      9 C           1.6735   -0.5341   -0.1388 C.ar    1  UNL1        0.0037
     10 C           0.1644   -0.4245   -0.1110 C.ar    1  UNL1        0.0094
     11 C          -0.7470   -1.4897   -0.1403 C.ar    1  UNL1        0.0366
     12 N          -2.1092   -1.4151   -0.1529 N.ar    1  UNL1       -0.2543
     13 C          -2.6939   -0.1986   -0.0945 C.ar    1  UNL1        0.0716
     14 C          -1.9247    0.9495   -0.0103 C.ar    1  UNL1       -0.0273
     15 C          -0.5153    0.8278   -0.0005 C.ar    1  UNL1       -0.0031
     16 C           0.3774    1.9078    0.1468 C.ar    1  UNL1        0.0284
     17 C           0.0681    3.2370    0.2972 C.ar    1  UNL1        0.1000
     18 O           1.2125    3.9660    0.4389 O.2     1  UNL1       -0.4698
     19 C           2.2597    3.0920    0.3813 C.ar    1  UNL1        0.1001
     20 C           1.7955    1.8117    0.2018 C.ar    1  UNL1        0.0317
     21 C           2.5309    0.6299    0.0810 C.ar    1  UNL1        0.0369
     22 C           3.9351    0.5661    0.1584 C.ar    1  UNL1        0.1438
     23 O           4.8296    1.5804    0.3972 O.2     1  UNL1       -0.4623
     24 C          -4.1713   -0.1883   -0.1168 C.ar    1  UNL1        0.0004
     25 C          -4.8838   -1.1788   -0.8193 C.ar    1  UNL1       -0.0526
     26 C          -6.2813   -1.1854   -0.8608 C.ar    1  UNL1       -0.0611
     27 C          -7.0014   -0.2003   -0.1930 C.ar    1  UNL1       -0.0617
     28 C          -6.3251    0.7858    0.5188 C.ar    1  UNL1       -0.0611
     29 C          -4.9263    0.7898    0.5576 C.ar    1  UNL1       -0.0526
     30 H           6.8897    1.7270    0.5613 H       1  UNL1        0.1030
     31 H           6.8731   -0.9965    0.0622 H       1  UNL1        0.0655
     32 H           5.5985   -3.2359   -0.5289 H       1  UNL1        0.0700
     33 H           1.1066   -3.2581   -1.1045 H       1  UNL1        0.0700
     34 H          -0.4193   -2.5198   -0.1019 H       1  UNL1        0.0836
     35 H          -2.3941    1.9247    0.0396 H       1  UNL1        0.0645
     36 H          -0.8466    3.8114    0.3308 H       1  UNL1        0.1036
     37 H           3.2373    3.5432    0.4800 H       1  UNL1        0.1036
     38 H          -4.3404   -1.9616   -1.3470 H       1  UNL1        0.0624
     39 H          -6.8019   -1.9633   -1.4129 H       1  UNL1        0.0618
     40 H          -8.0877   -0.2056   -0.2214 H       1  UNL1        0.0618
     41 H          -6.8846    1.5504    1.0518 H       1  UNL1        0.0618
     42 H          -4.4347    1.5623    1.1442 H       1  UNL1        0.0624
@<TRIPOS>BOND
     1     1     2   ar
     2     2     3   ar
     3     3     4   ar
     4     4     5   ar
     5     5     6   ar
     6     6     7   ar
     7     7     8   ar
     8     8     9   ar
     9     9    10   ar
    10    10    11   ar
    11    11    12   ar
    12    12    13   ar
    13    13    14   ar
    14    14    15   ar
    15    15    16   ar
    16    16    17   ar
    17    17    18   ar
    18    18    19   ar
    19    19    20   ar
    20    20    21   ar
    21    21    22   ar
    22    22    23   ar
    23    13    24    1
    24    24    25   ar
    25    25    26   ar
    26    26    27   ar
    27    27    28   ar
    28    28    29   ar
    29    23     1   ar
    30    29    24   ar
    31    22     3   ar
    32     8     4   ar
    33    21     9   ar
    34    15    10   ar
    35    20    16   ar
    36     1    30    1
    37     2    31    1
    38     5    32    1
    39     7    33    1
    40    11    34    1
    41    14    35    1
    42    17    36    1
    43    19    37    1
    44    25    38    1
    45    26    39    1
    46    27    40    1
    47    28    41    1
    48    29    42    1
