@<TRIPOS>MOLECULE
*****
 40 46 0 0 0
SMALL
GASTEIGER

@<TRIPOS>ATOM
      1 SI         -3.4817   -3.5765   -1.0245 Si      1  UNL1        0.0000
      2 C          -1.6562   -3.2387   -0.9556 C.2     1  UNL1        0.0000
      3 C          -1.4128   -1.9687   -0.5785 C.ar    1  UNL1        0.0000
      4 C          -0.1248   -1.3638   -0.4198 C.ar    1  UNL1        0.0000
      5 C           1.1930   -1.8403   -0.5864 C.ar    1  UNL1        0.0000
      6 C           2.0597   -0.7940   -0.2875 C.ar    1  UNL1        0.0000
      7 N           1.2780    0.2929    0.0528 N.ar    1  UNL1        0.0000
      8 C          -0.0406   -0.0459   -0.0254 C.ar    1  UNL1        0.0000
      9 C          -1.1913    0.7634    0.2383 C.ar    1  UNL1        0.0000
     10 S          -1.1522    2.3988    0.7288 S.2     1  UNL1        0.0000
     11 C          -2.8471    2.4617    0.7781 C.ar    1  UNL1        0.0000
     12 C          -3.6604    3.5775    1.1278 C.2     1  UNL1        0.0000
     13 C          -4.9752    3.2805    1.0622 C.2     1  UNL1        0.0000
     14 SI         -5.2691    1.4714    0.5241 Si      1  UNL1        0.0000
     15 C          -3.4068    1.2463    0.4231 C.ar    1  UNL1        0.0000
     16 C          -2.4812    0.2434    0.1052 C.ar    1  UNL1        0.0000
     17 C          -2.6425   -1.1374   -0.3068 C.ar    1  UNL1        0.0000
     18 C          -3.7968   -1.8113   -0.4886 C.2     1  UNL1        0.0000
     19 C           3.4950   -0.7446   -0.2982 C.ar    1  UNL1        0.0000
     20 S           4.4672   -2.1309   -0.7320 S.2     1  UNL1        0.0000
     21 C           5.9724   -1.3034   -0.5100 C.ar    1  UNL1        0.0000
     22 C           5.6950   -0.0426   -0.1262 C.ar    1  UNL1        0.0000
     23 N           6.6027    0.9370    0.1521 N.ar    1  UNL1        0.0000
     24 C           5.7635    1.9960    0.4852 C.ar    1  UNL1        0.0000
     25 C           4.4037    1.6272    0.3985 C.ar    1  UNL1        0.0000
     26 C           4.3554    0.2634   -0.0105 C.ar    1  UNL1        0.0000
     27 H          -3.9677   -3.8354   -2.4009 H       1  UNL1        0.0000
     28 H          -3.9248   -4.5557   -0.0033 H       1  UNL1        0.0000
     29 H          -0.9268   -3.9954   -1.1960 H       1  UNL1        0.0000
     30 H           1.4854   -2.8364   -0.8908 H       1  UNL1        0.0000
     31 H           1.6220    1.2028    0.3200 H       1  UNL1        0.0000
     32 H          -3.2580    4.5421    1.4104 H       1  UNL1        0.0000
     33 H          -5.8059    3.9344    1.2736 H       1  UNL1        0.0000
     34 H          -5.9652    1.4144   -0.7857 H       1  UNL1        0.0000
     35 H          -5.9222    0.6953    1.6079 H       1  UNL1        0.0000
     36 H          -4.8057   -1.4621   -0.3656 H       1  UNL1        0.0000
     37 H           6.9282   -1.7814   -0.6706 H       1  UNL1        0.0000
     38 H           7.6132    0.8797    0.1170 H       1  UNL1        0.0000
     39 H           6.2029    2.9458    0.7629 H       1  UNL1        0.0000
     40 H           3.5777    2.2906    0.6125 H       1  UNL1        0.0000
@<TRIPOS>BOND
     1     1     2    1
     2     2     3    2
     3     3     4   ar
     4     4     5   ar
     5     5     6   ar
     6     6     7   ar
     7     7     8   ar
     8     8     9   ar
     9     9    10   ar
    10    10    11   ar
    11    11    12    1
    12    12    13    2
    13    13    14    1
    14    14    15    1
    15    15    16   ar
    16    16    17   ar
    17    17    18    2
    18     6    19    1
    19    19    20   ar
    20    20    21   ar
    21    21    22   ar
    22    22    23   ar
    23    23    24   ar
    24    24    25   ar
    25    25    26   ar
    26    18     1    1
    27    26    19   ar
    28    17     3   ar
    29    26    22   ar
    30     8     4   ar
    31    16     9   ar
    32    15    11   ar
    33     1    27    1
    34     1    28    1
    35     2    29    1
    36     5    30    1
    37     7    31    1
    38    12    32    1
    39    13    33    1
    40    14    34    1
    41    14    35    1
    42    18    36    1
    43    21    37    1
    44    23    38    1
    45    24    39    1
    46    25    40    1
