@<TRIPOS>MOLECULE
*****
 39 45 0 0 0
SMALL
GASTEIGER

@<TRIPOS>ATOM
      1 C          -6.0362    0.5598    0.7648 C.ar    1  UNL1        0.0028
      2 C          -5.6239   -0.5043   -0.0098 C.ar    1  UNL1       -0.0360
      3 C          -4.2307   -0.4345    0.0032 C.ar    1  UNL1        0.0085
      4 C          -3.2741   -1.2817   -0.6303 C.ar    1  UNL1       -0.0010
      5 C          -3.5715   -2.3666   -1.4011 C.ar    1  UNL1       -0.0160
      6 S          -2.1009   -3.0731   -1.9473 S.2     1  UNL1       -0.1038
      7 C          -1.1406   -1.8925   -1.1254 C.ar    1  UNL1       -0.0159
      8 C          -1.9028   -0.9679   -0.4415 C.ar    1  UNL1        0.0011
      9 C          -1.3913    0.1029    0.3134 C.ar    1  UNL1        0.0352
     10 C          -0.0525    0.4448    0.5232 C.ar    1  UNL1        0.1440
     11 O           1.0501   -0.1946    0.0350 O.2     1  UNL1       -0.4541
     12 C           2.1627    0.4661    0.4796 C.ar    1  UNL1        0.1384
     13 C           1.7683    1.5362    1.2582 C.ar    1  UNL1       -0.0080
     14 C           0.3480    1.5325    1.2933 C.ar    1  UNL1        0.0214
     15 C          -0.6299    2.3422    1.9004 C.ar    1  UNL1       -0.0503
     16 C          -1.9867    2.0377    1.7179 C.ar    1  UNL1       -0.0512
     17 C          -2.3789    0.9351    0.9370 C.ar    1  UNL1        0.0102
     18 C          -3.7651    0.6316    0.7560 C.ar    1  UNL1        0.0550
     19 N          -4.9217    1.2334    1.2187 N.ar    1  UNL1       -0.3601
     20 C           3.4355   -0.0901    0.0466 C.ar    1  UNL1        0.0454
     21 C           3.5339   -1.2373   -0.7795 C.ar    1  UNL1       -0.0489
     22 C           4.7584   -1.7977   -1.2142 C.ar    1  UNL1       -0.0589
     23 C           6.0068   -1.2643   -0.8645 C.ar    1  UNL1       -0.0335
     24 C           5.9856   -0.1155   -0.0393 C.ar    1  UNL1        0.1006
     25 N           7.0712    0.5384    0.4012 N.ar    1  UNL1       -0.1908
     26 S           6.5189    1.8005    1.3218 S.2     1  UNL1        0.1165
     27 N           4.8812    1.5778    1.2054 N.ar    1  UNL1       -0.1901
     28 C           4.6787    0.4937    0.4326 C.ar    1  UNL1        0.1105
     29 H          -7.0267    0.9006    1.0358 H       1  UNL1        0.0807
     30 H          -6.2663   -1.2188   -0.5056 H       1  UNL1        0.0639
     31 H          -4.5284   -2.7860   -1.6766 H       1  UNL1        0.0700
     32 H          -0.0666   -1.9662   -1.2068 H       1  UNL1        0.0700
     33 H           2.4203    2.2446    1.7493 H       1  UNL1        0.0661
     34 H          -0.3382    3.1962    2.5056 H       1  UNL1        0.0625
     35 H          -2.7226    2.6776    2.1967 H       1  UNL1        0.0624
     36 H          -4.9463    2.0534    1.8078 H       1  UNL1        0.1654
     37 H           2.6162   -1.7286   -1.1077 H       1  UNL1        0.0625
     38 H           4.7278   -2.6837   -1.8493 H       1  UNL1        0.0618
     39 H           6.9384   -1.7016   -1.2031 H       1  UNL1        0.0640
@<TRIPOS>BOND
     1     1     2   ar
     2     2     3   ar
     3     3     4   ar
     4     4     5   ar
     5     5     6   ar
     6     6     7   ar
     7     7     8   ar
     8     8     9   ar
     9     9    10   ar
    10    10    11   ar
    11    11    12   ar
    12    12    13   ar
    13    13    14   ar
    14    14    15   ar
    15    15    16   ar
    16    16    17   ar
    17    17    18   ar
    18    18    19   ar
    19    12    20    1
    20    20    21   ar
    21    21    22   ar
    22    22    23   ar
    23    23    24   ar
    24    24    25   ar
    25    25    26   ar
    26    26    27   ar
    27    27    28   ar
    28    19     1   ar
    29    28    20   ar
    30    18     3   ar
    31    28    24   ar
    32     8     4   ar
    33    17     9   ar
    34    14    10   ar
    35     1    29    1
    36     2    30    1
    37     5    31    1
    38     7    32    1
    39    13    33    1
    40    15    34    1
    41    16    35    1
    42    19    36    1
    43    21    37    1
    44    22    38    1
    45    23    39    1
