@<TRIPOS>MOLECULE
*****
 37 42 0 0 0
SMALL
GASTEIGER

@<TRIPOS>ATOM
      1 C          -3.8469    2.7400    1.6021 C.ar    1  UNL1        0.0028
      2 C          -4.6169    1.9218    0.7892 C.ar    1  UNL1       -0.0360
      3 C          -3.7234    0.9867    0.2716 C.ar    1  UNL1        0.0099
      4 C          -3.8919   -0.1165   -0.6191 C.ar    1  UNL1       -0.0010
      5 C          -5.0897   -0.4767   -1.1723 C.ar    1  UNL1       -0.0160
      6 S          -4.8711   -1.8625   -2.1895 S.2     1  UNL1       -0.1038
      7 C          -3.1714   -1.9470   -1.8629 C.ar    1  UNL1       -0.0160
      8 C          -2.8155   -0.9418   -1.0066 C.ar    1  UNL1       -0.0010
      9 C          -1.4849   -0.7284   -0.5360 C.ar    1  UNL1        0.0105
     10 C          -0.2862   -1.3984   -0.7679 C.ar    1  UNL1       -0.0280
     11 C           0.6789   -0.7079   -0.0361 C.ar    1  UNL1        0.0482
     12 N           0.0383    0.3296    0.6321 N.ar    1  UNL1       -0.3525
     13 C          -1.2862    0.3225    0.3184 C.ar    1  UNL1        0.0717
     14 C          -2.4577    1.2199    0.7439 C.ar    1  UNL1        0.0713
     15 N          -2.5336    2.3024    1.5676 N.ar    1  UNL1       -0.3590
     16 C           2.0950   -0.9736    0.1212 C.ar    1  UNL1        0.0074
     17 C           2.6380   -2.2586    0.3675 C.ar    1  UNL1       -0.0520
     18 C           4.0425   -2.5192    0.5476 C.ar    1  UNL1       -0.0605
     19 C           5.0492   -1.5278    0.4935 C.ar    1  UNL1       -0.0526
     20 C           4.4946   -0.2809    0.2359 C.ar    1  UNL1        0.0000
     21 C           5.1913    0.8901    0.0898 C.ar    1  UNL1        0.0094
     22 N           4.2662    1.8720   -0.1940 N.ar    1  UNL1       -0.3659
     23 C           2.9930    1.3383   -0.2217 C.ar    1  UNL1        0.0100
     24 C           3.1034   -0.0036    0.0584 C.ar    1  UNL1        0.0085
     25 H          -4.1167    3.5966    2.2053 H       1  UNL1        0.0807
     26 H          -5.6801    2.0151    0.6165 H       1  UNL1        0.0639
     27 H          -6.0686   -0.0342   -1.0564 H       1  UNL1        0.0700
     28 H          -2.5660   -2.7177   -2.3180 H       1  UNL1        0.0700
     29 H          -0.1068   -2.2660   -1.3878 H       1  UNL1        0.0645
     30 H           0.4995    0.9713    1.2603 H       1  UNL1        0.1660
     31 H          -1.7645    2.7189    2.0735 H       1  UNL1        0.1654
     32 H           1.9568   -3.1071    0.4395 H       1  UNL1        0.0624
     33 H           4.3454   -3.5496    0.7374 H       1  UNL1        0.0618
     34 H           6.1009   -1.7372    0.6241 H       1  UNL1        0.0624
     35 H           6.2464    1.1221    0.1407 H       1  UNL1        0.0813
     36 H           4.4911    2.8409   -0.3792 H       1  UNL1        0.1648
     37 H           2.1475    1.9664   -0.4649 H       1  UNL1        0.0813
@<TRIPOS>BOND
     1     1     2   ar
     2     2     3   ar
     3     3     4   ar
     4     4     5   ar
     5     5     6   ar
     6     6     7   ar
     7     7     8   ar
     8     8     9   ar
     9     9    10   ar
    10    10    11   ar
    11    11    12   ar
    12    12    13   ar
    13    13    14   ar
    14    14    15   ar
    15    11    16    1
    16    16    17   ar
    17    17    18   ar
    18    18    19   ar
    19    19    20   ar
    20    20    21   ar
    21    21    22   ar
    22    22    23   ar
    23    23    24   ar
    24    15     1   ar
    25    24    16   ar
    26    14     3   ar
    27    24    20   ar
    28     8     4   ar
    29    13     9   ar
    30     1    25    1
    31     2    26    1
    32     5    27    1
    33     7    28    1
    34    10    29    1
    35    12    30    1
    36    15    31    1
    37    17    32    1
    38    18    33    1
    39    19    34    1
    40    21    35    1
    41    22    36    1
    42    23    37    1
