@<TRIPOS>MOLECULE
*****
 41 47 0 0 0
SMALL
GASTEIGER

@<TRIPOS>ATOM
      1 C          -5.8720   -0.4831   -1.4257 C.ar    1  UNL1       -0.0231
      2 C          -5.7130   -0.1972   -0.0903 C.ar    1  UNL1       -0.0464
      3 C          -4.3412   -0.1593    0.2318 C.ar    1  UNL1       -0.0020
      4 C          -3.8127    0.1125    1.5391 C.ar    1  UNL1       -0.0021
      5 C          -4.5672    0.3713    2.6483 C.ar    1  UNL1       -0.0160
      6 S          -3.5252    0.6391    3.9879 S.2     1  UNL1       -0.1038
      7 C          -2.1130    0.3974    3.0248 C.ar    1  UNL1       -0.0160
      8 C          -2.4055    0.1157    1.7040 C.ar    1  UNL1       -0.0025
      9 C          -1.4182   -0.1229    0.7134 C.ar    1  UNL1       -0.0073
     10 C           0.0216   -0.1048    0.9514 C.ar    1  UNL1       -0.0450
     11 C           1.0032   -0.3346   -0.0403 C.ar    1  UNL1       -0.0059
     12 C           2.4260   -0.3213    0.2028 C.ar    1  UNL1       -0.0081
     13 C           3.1160   -1.2755    0.9983 C.ar    1  UNL1       -0.0534
     14 C           4.5356   -1.2584    1.2450 C.ar    1  UNL1       -0.0605
     15 C           5.4197   -0.2832    0.7308 C.ar    1  UNL1       -0.0526
     16 C           4.7264    0.6450   -0.0336 C.ar    1  UNL1       -0.0000
     17 C           5.2724    1.7297   -0.6691 C.ar    1  UNL1        0.0094
     18 N           4.2361    2.3883   -1.2973 N.ar    1  UNL1       -0.3659
     19 C           3.0430    1.7353   -1.0654 C.ar    1  UNL1        0.0100
     20 C           3.3215    0.6371   -0.2873 C.ar    1  UNL1        0.0071
     21 C           0.3975   -0.5957   -1.2702 C.ar    1  UNL1        0.0282
     22 C           1.0326   -0.8921   -2.4493 C.ar    1  UNL1        0.1000
     23 O           0.1101   -1.0886   -3.4316 O.2     1  UNL1       -0.4698
     24 C          -1.1258   -0.9258   -2.8720 C.ar    1  UNL1        0.1000
     25 C          -1.0159   -0.6242   -1.5353 C.ar    1  UNL1        0.0292
     26 C          -2.0246   -0.3902   -0.5812 C.ar    1  UNL1        0.0078
     27 C          -3.4370   -0.4040   -0.7975 C.ar    1  UNL1        0.0283
     28 S          -4.3781   -0.6918   -2.2297 S.2     1  UNL1       -0.0960
     29 H          -6.7983   -0.5808   -1.9754 H       1  UNL1        0.0694
     30 H          -6.5451   -0.0321    0.5814 H       1  UNL1        0.0629
     31 H          -5.6393    0.4228    2.7714 H       1  UNL1        0.0700
     32 H          -1.1530    0.4828    3.5126 H       1  UNL1        0.0700
     33 H           0.3839    0.1095    1.9565 H       1  UNL1        0.0630
     34 H           2.5410   -2.0857    1.4498 H       1  UNL1        0.0624
     35 H           4.9508   -2.0508    1.8688 H       1  UNL1        0.0618
     36 H           6.4826   -0.2777    0.9229 H       1  UNL1        0.0624
     37 H           6.2852    2.1027   -0.7360 H       1  UNL1        0.0813
     38 H           4.3346    3.2330   -1.8454 H       1  UNL1        0.1648
     39 H           2.1197    2.1193   -1.4782 H       1  UNL1        0.0813
     40 H           2.0657   -0.9961   -2.7511 H       1  UNL1        0.1036
     41 H          -1.9398   -1.0654   -3.5666 H       1  UNL1        0.1036
@<TRIPOS>BOND
     1     1     2   ar
     2     2     3   ar
     3     3     4   ar
     4     4     5   ar
     5     5     6   ar
     6     6     7   ar
     7     7     8   ar
     8     8     9   ar
     9     9    10   ar
    10    10    11   ar
    11    11    12    1
    12    12    13   ar
    13    13    14   ar
    14    14    15   ar
    15    15    16   ar
    16    16    17   ar
    17    17    18   ar
    18    18    19   ar
    19    19    20   ar
    20    11    21   ar
    21    21    22   ar
    22    22    23   ar
    23    23    24   ar
    24    24    25   ar
    25    25    26   ar
    26    26    27   ar
    27    27    28   ar
    28    28     1   ar
    29    27     3   ar
    30     8     4   ar
    31    26     9   ar
    32    20    12   ar
    33    25    21   ar
    34    20    16   ar
    35     1    29    1
    36     2    30    1
    37     5    31    1
    38     7    32    1
    39    10    33    1
    40    13    34    1
    41    14    35    1
    42    15    36    1
    43    17    37    1
    44    18    38    1
    45    19    39    1
    46    22    40    1
    47    24    41    1
