@<TRIPOS>MOLECULE
*****
 41 47 0 0 0
SMALL
GASTEIGER

@<TRIPOS>ATOM
      1 C          -5.5141    2.9649   -0.1242 C.ar    1  UNL1       -0.0231
      2 C          -5.9779    1.6693   -0.1052 C.ar    1  UNL1       -0.0464
      3 C          -4.8937    0.7726   -0.0374 C.ar    1  UNL1       -0.0020
      4 C          -5.0006   -0.6573   -0.0008 C.ar    1  UNL1       -0.0021
      5 C          -6.1698   -1.3625   -0.0262 C.ar    1  UNL1       -0.0160
      6 S          -5.8123   -3.0435    0.0357 S.2     1  UNL1       -0.1038
      7 C          -4.1110   -2.7516    0.0934 C.ar    1  UNL1       -0.0160
      8 C          -3.8014   -1.4061    0.0673 C.ar    1  UNL1       -0.0025
      9 C          -2.4753   -0.9012    0.1045 C.ar    1  UNL1       -0.0079
     10 C          -1.2857   -1.6748    0.1735 C.ar    1  UNL1       -0.0442
     11 C          -0.0385   -1.0243    0.2019 C.ar    1  UNL1        0.0009
     12 C           1.3082   -1.4766    0.2706 C.ar    1  UNL1       -0.0286
     13 C           2.1408   -0.3737    0.2486 C.ar    1  UNL1        0.0481
     14 N           1.3244    0.7333    0.2088 N.ar    1  UNL1       -0.3541
     15 C          -0.0013    0.3654    0.1631 C.ar    1  UNL1        0.0475
     16 C          -1.1536    1.1622    0.0973 C.ar    1  UNL1       -0.0290
     17 C          -2.4146    0.5234    0.0661 C.ar    1  UNL1       -0.0010
     18 C          -3.6180    1.3205   -0.0034 C.ar    1  UNL1        0.0277
     19 S          -3.8051    3.0530   -0.0601 S.2     1  UNL1       -0.0960
     20 C           3.5849   -0.2843    0.3227 C.ar    1  UNL1        0.0065
     21 C           4.3456   -0.8948    1.3475 C.ar    1  UNL1       -0.0520
     22 C           5.7706   -0.7935    1.4516 C.ar    1  UNL1       -0.0605
     23 C           6.5791   -0.0789    0.5417 C.ar    1  UNL1       -0.0535
     24 C           5.8262    0.5073   -0.4764 C.ar    1  UNL1       -0.0102
     25 C           6.4009    1.2378   -1.4867 C.ar    1  UNL1       -0.0166
     26 S           5.2178    1.7985   -2.5993 S.2     1  UNL1       -0.1039
     27 C           3.9353    1.0536   -1.7272 C.ar    1  UNL1       -0.0160
     28 C           4.3886    0.4153   -0.5951 C.ar    1  UNL1       -0.0018
     29 H          -6.0968    3.8746   -0.1729 H       1  UNL1        0.0694
     30 H          -7.0295    1.4168   -0.1390 H       1  UNL1        0.0629
     31 H          -7.1937   -1.0211   -0.0758 H       1  UNL1        0.0700
     32 H          -3.4497   -3.6045    0.1431 H       1  UNL1        0.0700
     33 H          -1.3165   -2.7581    0.2042 H       1  UNL1        0.0630
     34 H           1.6354   -2.5073    0.3176 H       1  UNL1        0.0645
     35 H           1.6536    1.6885    0.2181 H       1  UNL1        0.1659
     36 H          -1.0598    2.2431    0.0718 H       1  UNL1        0.0645
     37 H           3.8230   -1.4676    2.1148 H       1  UNL1        0.0624
     38 H           6.2568   -1.2993    2.2868 H       1  UNL1        0.0618
     39 H           7.6550   -0.0171    0.6388 H       1  UNL1        0.0624
     40 H           7.4445    1.4714   -1.6470 H       1  UNL1        0.0699
     41 H           2.9281    1.1264   -2.1130 H       1  UNL1        0.0700
@<TRIPOS>BOND
     1     1     2   ar
     2     2     3   ar
     3     3     4   ar
     4     4     5   ar
     5     5     6   ar
     6     6     7   ar
     7     7     8   ar
     8     8     9   ar
     9     9    10   ar
    10    10    11   ar
    11    11    12   ar
    12    12    13   ar
    13    13    14   ar
    14    14    15   ar
    15    15    16   ar
    16    16    17   ar
    17    17    18   ar
    18    18    19   ar
    19    13    20    1
    20    20    21   ar
    21    21    22   ar
    22    22    23   ar
    23    23    24   ar
    24    24    25   ar
    25    25    26   ar
    26    26    27   ar
    27    27    28   ar
    28    19     1   ar
    29    28    20   ar
    30    18     3   ar
    31    28    24   ar
    32     8     4   ar
    33    17     9   ar
    34    15    11   ar
    35     1    29    1
    36     2    30    1
    37     5    31    1
    38     7    32    1
    39    10    33    1
    40    12    34    1
    41    14    35    1
    42    16    36    1
    43    21    37    1
    44    22    38    1
    45    23    39    1
    46    25    40    1
    47    27    41    1
