@<TRIPOS>MOLECULE
*****
 43 51 0 0 0
SMALL
GASTEIGER

@<TRIPOS>ATOM
      1 C          -7.1652   -0.6866   -0.7764 C.ar    1  UNL1       -0.0231
      2 C          -6.7223    0.4870   -0.2167 C.ar    1  UNL1       -0.0448
      3 C          -5.3173    0.4574   -0.0901 C.ar    1  UNL1        0.0180
      4 C          -4.5467    1.5392    0.4226 C.ar    1  UNL1        0.1087
      5 N          -5.1259    2.6759    0.7846 N.ar    1  UNL1       -0.1901
      6 S          -3.8291    3.6271    1.2165 S.2     1  UNL1        0.1165
      7 N          -2.5862    2.5562    0.9404 N.ar    1  UNL1       -0.1901
      8 C          -3.1049    1.3831    0.5235 C.ar    1  UNL1        0.1089
      9 C          -2.3735    0.1868    0.1719 C.ar    1  UNL1        0.0219
     10 C          -3.2291   -0.8064   -0.4463 C.ar    1  UNL1        0.0274
     11 C          -2.5570   -1.9425   -1.0041 C.ar    1  UNL1        0.1093
     12 N          -3.1292   -2.9771   -1.6471 N.ar    1  UNL1       -0.1901
     13 S          -1.9420   -4.0041   -2.1399 S.2     1  UNL1        0.1165
     14 N          -0.6200   -3.2071   -1.5648 N.ar    1  UNL1       -0.1901
     15 C          -1.0553   -2.0911   -0.9471 C.ar    1  UNL1        0.1082
     16 C          -0.2197   -1.1393   -0.2844 C.ar    1  UNL1        0.0122
     17 C           1.2152   -1.3938   -0.2810 C.ar    1  UNL1       -0.0429
     18 C           2.1609   -0.5984    0.3856 C.ar    1  UNL1        0.0022
     19 C           3.5931   -0.8400    0.4120 C.ar    1  UNL1        0.0475
     20 S           4.1791   -2.3764    0.9414 S.2     1  UNL1       -0.0923
     21 C           5.8202   -1.9306    0.7211 C.ar    1  UNL1        0.0038
     22 C           5.9285   -0.6474    0.2531 C.ar    1  UNL1        0.0968
     23 N           7.1258   -0.0532   -0.0078 N.ar    1  UNL1       -0.2514
     24 C           6.9416    1.2161   -0.4653 C.ar    1  UNL1        0.0464
     25 C           5.6991    1.8365   -0.6451 C.ar    1  UNL1        0.0464
     26 N           4.4915    1.2633   -0.3886 N.ar    1  UNL1       -0.2508
     27 C           4.6441   -0.0130    0.0721 C.ar    1  UNL1        0.1039
     28 C           1.5176    0.4208    1.0778 C.ar    1  UNL1        0.0287
     29 C           2.1021    1.3148    1.9381 C.ar    1  UNL1        0.1000
     30 O           1.1434    2.0790    2.5239 O.2     1  UNL1       -0.4698
     31 C          -0.0605    1.6772    2.0223 C.ar    1  UNL1        0.1000
     32 C           0.0998    0.6931    1.0749 C.ar    1  UNL1        0.0289
     33 C          -0.9096   -0.0225    0.3380 C.ar    1  UNL1        0.0049
     34 C          -4.6540   -0.6726   -0.5271 C.ar    1  UNL1        0.0313
     35 S          -5.8809   -1.7563   -1.1336 S.2     1  UNL1       -0.0959
     36 H          -8.1843   -0.9701   -1.0022 H       1  UNL1        0.0694
     37 H          -7.3757    1.3019    0.0724 H       1  UNL1        0.0630
     38 H           1.5859   -2.2627   -0.8303 H       1  UNL1        0.0631
     39 H           6.6183   -2.6245    0.9414 H       1  UNL1        0.0715
     40 H           7.8569    1.7537   -0.6972 H       1  UNL1        0.0845
     41 H           5.6484    2.8562   -1.0171 H       1  UNL1        0.0845
     42 H           3.1142    1.5117    2.2630 H       1  UNL1        0.1036
     43 H          -0.8973    2.1785    2.4804 H       1  UNL1        0.1036
@<TRIPOS>BOND
     1     1     2   ar
     2     2     3   ar
     3     3     4   ar
     4     4     5   ar
     5     5     6   ar
     6     6     7   ar
     7     7     8   ar
     8     8     9   ar
     9     9    10   ar
    10    10    11   ar
    11    11    12   ar
    12    12    13   ar
    13    13    14   ar
    14    14    15   ar
    15    15    16   ar
    16    16    17   ar
    17    17    18   ar
    18    18    19    1
    19    19    20   ar
    20    20    21   ar
    21    21    22   ar
    22    22    23   ar
    23    23    24   ar
    24    24    25   ar
    25    25    26   ar
    26    26    27   ar
    27    18    28   ar
    28    28    29   ar
    29    29    30   ar
    30    30    31   ar
    31    31    32   ar
    32    32    33   ar
    33    10    34   ar
    34    34    35   ar
    35    35     1   ar
    36    34     3   ar
    37     8     4   ar
    38    33     9   ar
    39    15    11   ar
    40    33    16   ar
    41    27    19   ar
    42    32    28   ar
    43    27    22   ar
    44     1    36    1
    45     2    37    1
    46    17    38    1
    47    21    39    1
    48    24    40    1
    49    25    41    1
    50    29    42    1
    51    31    43    1
