@<TRIPOS>MOLECULE
*****
 43 49 0 0 0
SMALL
GASTEIGER

@<TRIPOS>ATOM
      1 C           6.2070   -2.0400   -0.2792 C.ar    1  UNL1        0.0932
      2 C           6.3047   -0.7322    0.1492 C.ar    1  UNL1       -0.0140
      3 C           4.9792   -0.3063    0.2063 C.ar    1  UNL1        0.0489
      4 C           4.4170    0.9153    0.6286 C.ar    1  UNL1        0.1112
      5 N           5.1766    1.8967    1.0907 N.ar    1  UNL1       -0.1900
      6 S           4.0434    3.0339    1.5517 S.2     1  UNL1        0.1165
      7 N           2.6379    2.2404    1.1372 N.ar    1  UNL1       -0.1901
      8 C           2.9597    1.0535    0.5769 C.ar    1  UNL1        0.1090
      9 C           2.0408    0.0341    0.0696 C.ar    1  UNL1        0.0221
     10 C           2.7206   -1.1991   -0.2060 C.ar    1  UNL1        0.0278
     11 C           2.0143   -2.3666   -0.4858 C.ar    1  UNL1       -0.0498
     12 C           0.6302   -2.3460   -0.4339 C.ar    1  UNL1       -0.0533
     13 C          -0.0796   -1.1558   -0.2251 C.ar    1  UNL1       -0.0160
     14 C          -1.4699   -1.2536   -0.1525 C.ar    1  UNL1       -0.0456
     15 C          -2.2909   -0.1334    0.0053 C.ar    1  UNL1       -0.0081
     16 C          -3.7382   -0.3563    0.1334 C.ar    1  UNL1        0.0008
     17 C          -4.5514   -0.5620   -0.9869 C.ar    1  UNL1       -0.0511
     18 C          -5.9185   -0.7744   -0.8254 C.ar    1  UNL1       -0.0430
     19 C          -6.4354   -0.7775    0.4595 C.ar    1  UNL1        0.0276
     20 N          -5.6899   -0.5865    1.5682 N.ar    1  UNL1       -0.2627
     21 C          -4.3638   -0.3824    1.3797 C.ar    1  UNL1        0.0353
     22 C          -1.7056    1.1499   -0.0301 C.ar    1  UNL1       -0.0095
     23 C          -2.5087    2.3189    0.0009 C.ar    1  UNL1       -0.0534
     24 C          -1.9708    3.5911   -0.1562 C.ar    1  UNL1       -0.0611
     25 C          -0.6169    3.7198   -0.3841 C.ar    1  UNL1       -0.0611
     26 C           0.1927    2.5805   -0.3941 C.ar    1  UNL1       -0.0534
     27 C          -0.2877    1.2724   -0.1434 C.ar    1  UNL1       -0.0089
     28 C           0.5763    0.0966   -0.0910 C.ar    1  UNL1       -0.0002
     29 C           4.1266   -1.3073   -0.1674 C.ar    1  UNL1        0.1447
     30 O           4.9014   -2.4035   -0.4662 O.2     1  UNL1       -0.4622
     31 H           6.9335   -2.8153   -0.4819 H       1  UNL1        0.1030
     32 H           7.2082   -0.1908    0.3911 H       1  UNL1        0.0656
     33 H           2.5248   -3.3082   -0.6785 H       1  UNL1        0.0625
     34 H           0.1012   -3.2879   -0.5778 H       1  UNL1        0.0624
     35 H          -1.9432   -2.2356   -0.2009 H       1  UNL1        0.0630
     36 H          -4.1220   -0.5513   -1.9860 H       1  UNL1        0.0625
     37 H          -6.5643   -0.9326   -1.6818 H       1  UNL1        0.0633
     38 H          -7.4951   -0.9386    0.6363 H       1  UNL1        0.0829
     39 H          -3.7940   -0.2323    2.2938 H       1  UNL1        0.0836
     40 H          -3.5887    2.2508    0.1213 H       1  UNL1        0.0624
     41 H          -2.6145    4.4657   -0.1394 H       1  UNL1        0.0618
     42 H          -0.1791    4.6977   -0.5645 H       1  UNL1        0.0618
     43 H           1.2323    2.7408   -0.6611 H       1  UNL1        0.0624
@<TRIPOS>BOND
     1     1     2   ar
     2     2     3   ar
     3     3     4   ar
     4     4     5   ar
     5     5     6   ar
     6     6     7   ar
     7     7     8   ar
     8     8     9   ar
     9     9    10   ar
    10    10    11   ar
    11    11    12   ar
    12    12    13   ar
    13    13    14   ar
    14    14    15   ar
    15    15    16    1
    16    16    17   ar
    17    17    18   ar
    18    18    19   ar
    19    19    20   ar
    20    20    21   ar
    21    15    22   ar
    22    22    23   ar
    23    23    24   ar
    24    24    25   ar
    25    25    26   ar
    26    26    27   ar
    27    27    28   ar
    28    10    29   ar
    29    29    30   ar
    30    30     1   ar
    31    29     3   ar
    32     8     4   ar
    33    28     9   ar
    34    28    13   ar
    35    21    16   ar
    36    27    22   ar
    37     1    31    1
    38     2    32    1
    39    11    33    1
    40    12    34    1
    41    14    35    1
    42    17    36    1
    43    18    37    1
    44    19    38    1
    45    21    39    1
    46    23    40    1
    47    24    41    1
    48    25    42    1
    49    26    43    1
