@<TRIPOS>MOLECULE
*****
 38 44 0 0 0
SMALL
GASTEIGER

@<TRIPOS>ATOM
      1 C          -5.7432    0.9881    2.4118 C.ar    1  UNL1        0.0934
      2 C          -6.0982    0.4740    1.1766 C.ar    1  UNL1       -0.0139
      3 C          -4.8759    0.2282    0.5570 C.ar    1  UNL1        0.0520
      4 C          -4.5405   -0.2969   -0.7194 C.ar    1  UNL1        0.1114
      5 N          -5.4815   -0.6622   -1.5834 N.ar    1  UNL1       -0.1900
      6 S          -4.5881   -1.2025   -2.9114 S.2     1  UNL1        0.1165
      7 N          -3.0127   -0.9601   -2.3560 N.ar    1  UNL1       -0.1900
      8 C          -3.1756   -0.4584   -1.1380 C.ar    1  UNL1        0.1120
      9 C          -2.0835   -0.0974   -0.2875 C.ar    1  UNL1        0.0604
     10 C          -2.3942    0.4143    0.9548 C.ar    1  UNL1        0.1810
     11 O          -1.2597    0.7116    1.6495 O.2     1  UNL1       -0.4510
     12 C          -0.2059    0.3814    0.8296 C.ar    1  UNL1        0.1377
     13 C           1.1586    0.5302    1.1597 C.ar    1  UNL1       -0.0103
     14 C           2.1652    0.1620    0.2318 C.ar    1  UNL1       -0.0038
     15 C           3.5905    0.3000    0.5060 C.ar    1  UNL1        0.0010
     16 C           4.1935   -0.3451    1.5922 C.ar    1  UNL1       -0.0511
     17 C           5.5569   -0.1867    1.8350 C.ar    1  UNL1       -0.0430
     18 C           6.2866    0.6221    0.9809 C.ar    1  UNL1        0.0276
     19 N           5.7521    1.2696   -0.0747 N.ar    1  UNL1       -0.2627
     20 C           4.4231    1.0962   -0.2815 C.ar    1  UNL1        0.0353
     21 C           1.6296   -0.3461   -0.9645 C.ar    1  UNL1        0.0080
     22 C           2.3425   -0.8259   -2.0435 C.ar    1  UNL1        0.0100
     23 N           1.4403   -1.2363   -3.0084 N.ar    1  UNL1       -0.3659
     24 C           0.1478   -1.0445   -2.5657 C.ar    1  UNL1        0.0101
     25 C           0.2707   -0.5095   -1.3198 C.ar    1  UNL1        0.0114
     26 C          -0.7069   -0.1182   -0.3668 C.ar    1  UNL1        0.0393
     27 C          -3.8556    0.5828    1.3928 C.ar    1  UNL1        0.1796
     28 O          -4.3807    1.0581    2.5533 O.2     1  UNL1       -0.4591
     29 H          -6.3096    1.3365    3.2651 H       1  UNL1        0.1030
     30 H          -7.0995    0.3115    0.8039 H       1  UNL1        0.0656
     31 H           1.4262    0.9434    2.1287 H       1  UNL1        0.0661
     32 H           3.6056   -0.9823    2.2489 H       1  UNL1        0.0625
     33 H           6.0366   -0.6845    2.6701 H       1  UNL1        0.0633
     34 H           7.3517    0.7759    1.1284 H       1  UNL1        0.0829
     35 H           4.0276    1.6449   -1.1334 H       1  UNL1        0.0836
     36 H           3.4043   -0.9252   -2.2280 H       1  UNL1        0.0813
     37 H           1.6921   -1.6305   -3.9058 H       1  UNL1        0.1648
     38 H          -0.6903   -1.3185   -3.1885 H       1  UNL1        0.0813
@<TRIPOS>BOND
     1     1     2   ar
     2     2     3   ar
     3     3     4   ar
     4     4     5   ar
     5     5     6   ar
     6     6     7   ar
     7     7     8   ar
     8     8     9   ar
     9     9    10   ar
    10    10    11   ar
    11    11    12   ar
    12    12    13   ar
    13    13    14   ar
    14    14    15    1
    15    15    16   ar
    16    16    17   ar
    17    17    18   ar
    18    18    19   ar
    19    19    20   ar
    20    14    21   ar
    21    21    22   ar
    22    22    23   ar
    23    23    24   ar
    24    24    25   ar
    25    25    26   ar
    26    10    27   ar
    27    27    28   ar
    28    28     1   ar
    29    27     3   ar
    30     8     4   ar
    31    26     9   ar
    32    26    12   ar
    33    20    15   ar
    34    25    21   ar
    35     1    29    1
    36     2    30    1
    37    13    31    1
    38    16    32    1
    39    17    33    1
    40    18    34    1
    41    20    35    1
    42    22    36    1
    43    23    37    1
    44    24    38    1
