@<TRIPOS>MOLECULE
*****
 35 41 0 0 0
SMALL
GASTEIGER

@<TRIPOS>ATOM
      1 C          -5.3361    1.9208   -0.9174 C.ar    1  UNL1        0.0029
      2 C          -5.5384    0.5750   -0.6466 C.ar    1  UNL1       -0.0344
      3 C          -4.2661    0.0632   -0.3987 C.ar    1  UNL1        0.0314
      4 C          -3.8185   -1.2490   -0.0651 C.ar    1  UNL1        0.1098
      5 N          -4.6645   -2.2652    0.0654 N.ar    1  UNL1       -0.1901
      6 S          -3.6494   -3.5579    0.4563 S.2     1  UNL1        0.1165
      7 N          -2.1400   -2.7960    0.4528 N.ar    1  UNL1       -0.1900
      8 C          -2.4270   -1.5359    0.1468 C.ar    1  UNL1        0.1119
      9 C          -1.4266   -0.5225    0.0336 C.ar    1  UNL1        0.0588
     10 C          -1.8462    0.7495   -0.2878 C.ar    1  UNL1        0.1622
     11 O          -0.7873    1.6041   -0.3596 O.2     1  UNL1       -0.4526
     12 C           0.3330    0.8540   -0.0773 C.ar    1  UNL1        0.1377
     13 C           1.6577    1.3439   -0.0414 C.ar    1  UNL1       -0.0098
     14 C           2.7248    0.4668    0.2676 C.ar    1  UNL1        0.0044
     15 C           4.1131    0.8817    0.3489 C.ar    1  UNL1        0.0396
     16 C           5.0290    0.7434    1.3764 C.ar    1  UNL1        0.0425
     17 N           6.2950    1.2416    1.1335 N.ar    1  UNL1       -0.2551
     18 C           6.3272    1.7609   -0.0732 C.ar    1  UNL1        0.0652
     19 S           4.8686    1.6850   -0.9699 S.2     1  UNL1       -0.0754
     20 C           2.3048   -0.8494    0.5064 C.ar    1  UNL1        0.0289
     21 C           3.0863   -1.9456    0.7977 C.ar    1  UNL1        0.1000
     22 O           2.3067   -3.0631    0.9563 O.2     1  UNL1       -0.4698
     23 C           1.0012   -2.6926    0.7521 C.ar    1  UNL1        0.1001
     24 C           0.9897   -1.3629    0.4735 C.ar    1  UNL1        0.0318
     25 C          -0.0580   -0.4582    0.1669 C.ar    1  UNL1        0.0409
     26 C          -3.3281    1.0490   -0.5122 C.ar    1  UNL1        0.0921
     27 N          -3.9821    2.1997   -0.8326 N.ar    1  UNL1       -0.3577
     28 H          -6.0370    2.7078   -1.1637 H       1  UNL1        0.0807
     29 H          -6.4878    0.0553   -0.6356 H       1  UNL1        0.0639
     30 H           1.8403    2.3960   -0.2416 H       1  UNL1        0.0661
     31 H           4.8242    0.2840    2.3366 H       1  UNL1        0.0841
     32 H           7.2206    2.2138   -0.4833 H       1  UNL1        0.0907
     33 H           4.1475   -2.1145    0.9204 H       1  UNL1        0.1036
     34 H           0.2745   -3.4860    0.8410 H       1  UNL1        0.1036
     35 H          -3.5510    3.1034   -0.9827 H       1  UNL1        0.1654
@<TRIPOS>BOND
     1     1     2   ar
     2     2     3   ar
     3     3     4   ar
     4     4     5   ar
     5     5     6   ar
     6     6     7   ar
     7     7     8   ar
     8     8     9   ar
     9     9    10   ar
    10    10    11   ar
    11    11    12   ar
    12    12    13   ar
    13    13    14   ar
    14    14    15    1
    15    15    16   ar
    16    16    17   ar
    17    17    18   ar
    18    18    19   ar
    19    14    20   ar
    20    20    21   ar
    21    21    22   ar
    22    22    23   ar
    23    23    24   ar
    24    24    25   ar
    25    10    26   ar
    26    26    27   ar
    27    27     1   ar
    28    26     3   ar
    29     8     4   ar
    30    25     9   ar
    31    25    12   ar
    32    19    15   ar
    33    24    20   ar
    34     1    28    1
    35     2    29    1
    36    13    30    1
    37    16    31    1
    38    18    32    1
    39    21    33    1
    40    23    34    1
    41    27    35    1
