@<TRIPOS>MOLECULE
*****
 33 39 0 0 0
SMALL
GASTEIGER

@<TRIPOS>ATOM
      1 C           6.2584    0.7689    0.0719 C.ar    1  UNL1        0.0933
      2 C           5.8968   -0.4844   -0.3909 C.ar    1  UNL1       -0.0140
      3 C           4.5050   -0.4650   -0.3499 C.ar    1  UNL1        0.0494
      4 C           3.5317   -1.4486   -0.6963 C.ar    1  UNL1        0.1113
      5 N           3.8702   -2.6481   -1.1558 N.ar    1  UNL1       -0.1900
      6 S           2.3710   -3.3980   -1.4016 S.2     1  UNL1        0.1165
      7 N           1.3082   -2.1710   -0.9142 N.ar    1  UNL1       -0.1901
      8 C           2.1296   -1.1870   -0.5639 C.ar    1  UNL1        0.1109
      9 C           1.6879    0.0754   -0.0782 C.ar    1  UNL1        0.0448
     10 C           0.3476    0.4204    0.0841 C.ar    1  UNL1        0.0642
     11 N          -0.9101   -0.0914   -0.0780 N.ar    1  UNL1       -0.3531
     12 C          -1.8387    0.8575    0.3015 C.ar    1  UNL1        0.0516
     13 C          -1.1458    1.9913    0.7113 C.ar    1  UNL1       -0.0219
     14 C           0.2400    1.6964    0.5667 C.ar    1  UNL1        0.0388
     15 S           1.8019    2.4618    0.8168 S.2     1  UNL1       -0.0829
     16 C           2.5701    1.0530    0.2682 C.ar    1  UNL1        0.0669
     17 C           4.0747    0.7496    0.1175 C.ar    1  UNL1        0.1513
     18 O           5.1589    1.5265    0.3836 O.2     1  UNL1       -0.4617
     19 C          -3.2812    0.6079    0.2426 C.ar    1  UNL1        0.0446
     20 C          -4.2593    1.5399    0.6169 C.ar    1  UNL1        0.0389
     21 N          -5.6270    1.3916    0.5943 N.ar    1  UNL1       -0.2603
     22 C          -6.1921    0.2259    0.1694 C.ar    1  UNL1        0.0557
     23 C          -5.3370   -0.8143   -0.2426 C.ar    1  UNL1        0.1185
     24 N          -5.7121   -2.0240   -0.6886 N.ar    1  UNL1       -0.1892
     25 S          -4.3170   -2.8507   -1.0334 S.2     1  UNL1        0.1165
     26 N          -3.1764   -1.7149   -0.6338 N.ar    1  UNL1       -0.1900
     27 C          -3.8399   -0.6209   -0.2062 C.ar    1  UNL1        0.1119
     28 H           7.2101    1.2576    0.2327 H       1  UNL1        0.1030
     29 H           6.5609   -1.2770   -0.7052 H       1  UNL1        0.0656
     30 H          -1.0941   -1.0292   -0.4264 H       1  UNL1        0.1659
     31 H          -1.5631    2.9219    1.0715 H       1  UNL1        0.0650
     32 H          -3.9575    2.5225    0.9792 H       1  UNL1        0.0837
     33 H          -7.2717    0.1564    0.1695 H       1  UNL1        0.0852
@<TRIPOS>BOND
     1     1     2   ar
     2     2     3   ar
     3     3     4   ar
     4     4     5   ar
     5     5     6   ar
     6     6     7   ar
     7     7     8   ar
     8     8     9   ar
     9     9    10   ar
    10    10    11   ar
    11    11    12   ar
    12    12    13   ar
    13    13    14   ar
    14    14    15   ar
    15    15    16   ar
    16    16    17   ar
    17    17    18   ar
    18    12    19    1
    19    19    20   ar
    20    20    21   ar
    21    21    22   ar
    22    22    23   ar
    23    23    24   ar
    24    24    25   ar
    25    25    26   ar
    26    26    27   ar
    27    18     1   ar
    28    27    19   ar
    29    17     3   ar
    30    27    23   ar
    31     8     4   ar
    32    16     9   ar
    33    14    10   ar
    34     1    28    1
    35     2    29    1
    36    11    30    1
    37    13    31    1
    38    20    32    1
    39    22    33    1
