@<TRIPOS>MOLECULE
*****
 38 44 0 0 0
SMALL
GASTEIGER

@<TRIPOS>ATOM
      1 C           6.4024   -2.2149   -1.0518 C.ar    1  UNL1        0.0933
      2 C           6.6862   -0.8675   -0.9141 C.ar    1  UNL1       -0.0140
      3 C           5.4444   -0.2933   -0.6589 C.ar    1  UNL1        0.0494
      4 C           5.0429    1.0452   -0.4232 C.ar    1  UNL1        0.1113
      5 N           5.9187    2.0440   -0.4167 N.ar    1  UNL1       -0.1900
      6 S           4.9530    3.3946   -0.0979 S.2     1  UNL1        0.1165
      7 N           3.4285    2.6744    0.0263 N.ar    1  UNL1       -0.1901
      8 C           3.6731    1.3842   -0.1806 C.ar    1  UNL1        0.1095
      9 C           2.6274    0.3892   -0.1626 C.ar    1  UNL1        0.0301
     10 C           1.2388    0.5834    0.0637 C.ar    1  UNL1        0.0173
     11 C           0.4497    1.7102    0.3337 C.ar    1  UNL1        0.0371
     12 N          -0.8891    1.6045    0.5126 N.ar    1  UNL1       -0.2543
     13 C          -1.5025    0.4024    0.4170 C.ar    1  UNL1        0.0727
     14 C          -0.7971   -0.7683    0.1736 C.ar    1  UNL1       -0.0213
     15 C           0.5883   -0.6577   -0.0091 C.ar    1  UNL1        0.0241
     16 S           1.6917   -1.9598   -0.3363 S.2     1  UNL1       -0.0843
     17 C           3.0027   -0.9078   -0.3883 C.ar    1  UNL1        0.0655
     18 C           4.4792   -1.2593   -0.6479 C.ar    1  UNL1        0.1512
     19 O           5.0634   -2.4638   -0.8919 O.2     1  UNL1       -0.4617
     20 C          -2.9439    0.4201    0.6428 C.ar    1  UNL1        0.0095
     21 C          -3.5742    1.1685    1.6805 C.ar    1  UNL1       -0.0519
     22 C          -4.9900    1.1908    1.9416 C.ar    1  UNL1       -0.0605
     23 C          -5.9428    0.4739    1.1879 C.ar    1  UNL1       -0.0526
     24 C          -5.3221   -0.2324    0.1674 C.ar    1  UNL1        0.0000
     25 C          -5.9634   -1.0032   -0.7670 C.ar    1  UNL1        0.0094
     26 N          -4.9935   -1.4921   -1.6138 N.ar    1  UNL1       -0.3659
     27 C          -3.7476   -1.0412   -1.2260 C.ar    1  UNL1        0.0100
     28 C          -3.9166   -0.2668   -0.1014 C.ar    1  UNL1        0.0086
     29 H           7.0088   -3.0875   -1.2548 H       1  UNL1        0.1030
     30 H           7.6558   -0.3962   -0.9912 H       1  UNL1        0.0656
     31 H           0.8524    2.7143    0.4165 H       1  UNL1        0.0836
     32 H          -1.2892   -1.7335    0.1415 H       1  UNL1        0.0650
     33 H          -2.9368    1.7715    2.3310 H       1  UNL1        0.0624
     34 H          -5.3420    1.8048    2.7710 H       1  UNL1        0.0618
     35 H          -7.0044    0.5010    1.3849 H       1  UNL1        0.0624
     36 H          -7.0067   -1.2406   -0.9242 H       1  UNL1        0.0813
     37 H          -5.1705   -2.0810   -2.4171 H       1  UNL1        0.1648
     38 H          -2.8750   -1.3102   -1.8048 H       1  UNL1        0.0813
@<TRIPOS>BOND
     1     1     2   ar
     2     2     3   ar
     3     3     4   ar
     4     4     5   ar
     5     5     6   ar
     6     6     7   ar
     7     7     8   ar
     8     8     9   ar
     9     9    10   ar
    10    10    11   ar
    11    11    12   ar
    12    12    13   ar
    13    13    14   ar
    14    14    15   ar
    15    15    16   ar
    16    16    17   ar
    17    17    18   ar
    18    18    19   ar
    19    13    20    1
    20    20    21   ar
    21    21    22   ar
    22    22    23   ar
    23    23    24   ar
    24    24    25   ar
    25    25    26   ar
    26    26    27   ar
    27    27    28   ar
    28    19     1   ar
    29    28    20   ar
    30    18     3   ar
    31    28    24   ar
    32     8     4   ar
    33    17     9   ar
    34    15    10   ar
    35     1    29    1
    36     2    30    1
    37    11    31    1
    38    14    32    1
    39    21    33    1
    40    22    34    1
    41    23    35    1
    42    25    36    1
    43    26    37    1
    44    27    38    1
