@<TRIPOS>MOLECULE
*****
 45 52 0 0 0
SMALL
GASTEIGER

@<TRIPOS>ATOM
      1 SI         -2.2162   -4.0004    1.0947 Si      1  UNL1        0.0000
      2 C          -0.4968   -3.5263    0.5767 C.2     1  UNL1        0.0000
      3 C          -0.3814   -2.1891    0.4580 C.ar    1  UNL1        0.0000
      4 C           0.8377   -1.4688    0.2571 C.ar    1  UNL1        0.0000
      5 C           2.1706   -1.8703    0.0256 C.ar    1  UNL1        0.0000
      6 C           2.9352   -0.7162   -0.0575 C.ar    1  UNL1        0.0000
      7 N           2.0980    0.3588    0.1612 N.ar    1  UNL1        0.0000
      8 C           0.8218   -0.0924    0.3325 C.ar    1  UNL1        0.0000
      9 C          -0.3778    0.6645    0.5313 C.ar    1  UNL1        0.0000
     10 S          -0.4326    2.3510    0.7002 S.2     1  UNL1        0.0000
     11 C          -2.1609    2.3595    0.7073 C.ar    1  UNL1        0.0000
     12 C          -3.0096    3.5069    0.8061 C.ar    1  UNL1        0.0000
     13 C          -4.4080    3.4158    0.7071 C.ar    1  UNL1        0.0000
     14 C          -4.8144    2.1188    0.4566 C.ar    1  UNL1        0.0000
     15 C          -6.1179    1.7607    0.2048 C.ar    1  UNL1        0.0000
     16 N          -6.1258    0.4113   -0.0892 N.ar    1  UNL1        0.0000
     17 C          -4.8418   -0.0951   -0.0350 C.ar    1  UNL1        0.0000
     18 C          -4.0479    0.9434    0.3568 C.ar    1  UNL1        0.0000
     19 C          -2.6244    1.0498    0.5607 C.ar    1  UNL1        0.0000
     20 C          -1.6246    0.0444    0.6123 C.ar    1  UNL1        0.0000
     21 C          -1.6518   -1.4082    0.6995 C.ar    1  UNL1        0.0000
     22 C          -2.6611   -2.1892    1.1356 C.2     1  UNL1        0.0000
     23 C           4.3340   -0.5624   -0.2844 C.ar    1  UNL1        0.0000
     24 S           5.5521   -1.4217    0.6016 S.2     1  UNL1        0.0000
     25 C           6.8654   -0.6270   -0.2183 C.ar    1  UNL1        0.0000
     26 C           6.3281    0.2125   -1.1262 C.ar    1  UNL1        0.0000
     27 C           6.7015    1.1355   -2.1330 C.ar    1  UNL1        0.0000
     28 C           5.5086    1.6272   -2.7057 C.ar    1  UNL1        0.0000
     29 N           4.3815    1.0601   -2.1133 N.ar    1  UNL1        0.0000
     30 C           4.9518    0.2447   -1.1761 C.ar    1  UNL1        0.0000
     31 H          -2.9530   -4.7315    0.0356 H       1  UNL1        0.0000
     32 H          -2.2590   -4.6234    2.4391 H       1  UNL1        0.0000
     33 H           0.2921   -4.2561    0.4914 H       1  UNL1        0.0000
     34 H           2.5426   -2.8812   -0.0776 H       1  UNL1        0.0000
     35 H           2.3860    1.3268    0.2065 H       1  UNL1        0.0000
     36 H          -2.5565    4.4876    0.9416 H       1  UNL1        0.0000
     37 H          -5.0588    4.2775    0.7624 H       1  UNL1        0.0000
     38 H          -7.0355    2.3325    0.1745 H       1  UNL1        0.0000
     39 H          -6.9466   -0.1188   -0.3519 H       1  UNL1        0.0000
     40 H          -4.6524   -1.1187   -0.3180 H       1  UNL1        0.0000
     41 H          -3.6211   -1.8767    1.5076 H       1  UNL1        0.0000
     42 H           7.8962   -0.8459    0.0185 H       1  UNL1        0.0000
     43 H           7.7018    1.4177   -2.4336 H       1  UNL1        0.0000
     44 H           5.3741    2.3387   -3.5105 H       1  UNL1        0.0000
     45 H           3.3968    1.1737   -2.3219 H       1  UNL1        0.0000
@<TRIPOS>BOND
     1     1     2    1
     2     2     3    2
     3     3     4   ar
     4     4     5   ar
     5     5     6   ar
     6     6     7   ar
     7     7     8   ar
     8     8     9   ar
     9     9    10   ar
    10    10    11   ar
    11    11    12   ar
    12    12    13   ar
    13    13    14   ar
    14    14    15   ar
    15    15    16   ar
    16    16    17   ar
    17    17    18   ar
    18    18    19   ar
    19    19    20   ar
    20    20    21   ar
    21    21    22    2
    22     6    23    1
    23    23    24   ar
    24    24    25   ar
    25    25    26   ar
    26    26    27   ar
    27    27    28   ar
    28    28    29   ar
    29    29    30   ar
    30    22     1    1
    31    30    23   ar
    32    21     3   ar
    33    30    26   ar
    34     8     4   ar
    35    20     9   ar
    36    19    11   ar
    37    18    14   ar
    38     1    31    1
    39     1    32    1
    40     2    33    1
    41     5    34    1
    42     7    35    1
    43    12    36    1
    44    13    37    1
    45    15    38    1
    46    16    39    1
    47    17    40    1
    48    22    41    1
    49    25    42    1
    50    27    43    1
    51    28    44    1
    52    29    45    1
