@<TRIPOS>MOLECULE
*****
 41 47 0 0 0
SMALL
GASTEIGER

@<TRIPOS>ATOM
      1 C           6.0901    1.6697    0.9340 C.ar    1  UNL1        0.0932
      2 C           6.4666    0.5097    0.2876 C.ar    1  UNL1       -0.0140
      3 C           5.2540   -0.0907   -0.0467 C.ar    1  UNL1        0.0489
      4 C           4.9844   -1.3086   -0.7252 C.ar    1  UNL1        0.1112
      5 N           5.9424   -2.1062   -1.1695 N.ar    1  UNL1       -0.1900
      6 S           5.0680   -3.3569   -1.8663 S.2     1  UNL1        0.1165
      7 N           3.4995   -2.8411   -1.5785 N.ar    1  UNL1       -0.1901
      8 C           3.5844   -1.6631   -0.9225 C.ar    1  UNL1        0.1084
      9 C           2.4929   -0.8451   -0.4668 C.ar    1  UNL1        0.0144
     10 C           1.1335   -1.1828   -0.6548 C.ar    1  UNL1       -0.0440
     11 C           0.1016   -0.3521   -0.1918 C.ar    1  UNL1       -0.0160
     12 C          -1.2661   -0.7349   -0.4058 C.ar    1  UNL1       -0.0457
     13 C          -2.4040    0.0096    0.0037 C.ar    1  UNL1       -0.0091
     14 C          -3.7738   -0.4217   -0.2461 C.ar    1  UNL1       -0.0173
     15 C          -4.5746    0.2320   -1.1956 C.ar    1  UNL1       -0.0540
     16 C          -5.8845   -0.1880   -1.4380 C.ar    1  UNL1       -0.0612
     17 C          -6.4103   -1.2705   -0.7363 C.ar    1  UNL1       -0.0617
     18 C          -5.6275   -1.9341    0.2058 C.ar    1  UNL1       -0.0612
     19 C          -4.3174   -1.5137    0.4473 C.ar    1  UNL1       -0.0540
     20 C          -2.0408    1.1927    0.6687 C.ar    1  UNL1       -0.0026
     21 C          -2.9465    2.0858    1.1957 C.ar    1  UNL1       -0.0160
     22 S          -2.1680    3.4209    1.9403 S.2     1  UNL1       -0.1038
     23 C          -0.6076    2.8031    1.5771 C.ar    1  UNL1       -0.0160
     24 C          -0.6730    1.6056    0.9012 C.ar    1  UNL1       -0.0026
     25 C           0.4670    0.8599    0.4832 C.ar    1  UNL1       -0.0089
     26 C           1.8258    1.2104    0.6787 C.ar    1  UNL1       -0.0421
     27 C           2.8338    0.3597    0.2045 C.ar    1  UNL1        0.0278
     28 C           4.1989    0.6775    0.3814 C.ar    1  UNL1        0.1447
     29 O           4.7282    1.7845    0.9981 O.2     1  UNL1       -0.4622
     30 H           6.6410    2.4830    1.3870 H       1  UNL1        0.1030
     31 H           7.4739    0.1677    0.0969 H       1  UNL1        0.0656
     32 H           0.8921   -2.1111   -1.1726 H       1  UNL1        0.0630
     33 H          -1.4565   -1.6725   -0.9348 H       1  UNL1        0.0630
     34 H          -4.1763    1.0754   -1.7567 H       1  UNL1        0.0624
     35 H          -6.4921    0.3291   -2.1762 H       1  UNL1        0.0618
     36 H          -7.4295   -1.5979   -0.9246 H       1  UNL1        0.0618
     37 H          -6.0354   -2.7793    0.7540 H       1  UNL1        0.0618
     38 H          -3.7203   -2.0406    1.1891 H       1  UNL1        0.0624
     39 H          -4.0271    2.0391    1.1921 H       1  UNL1        0.0700
     40 H           0.2599    3.3653    1.8913 H       1  UNL1        0.0700
     41 H           2.0935    2.1302    1.1914 H       1  UNL1        0.0631
@<TRIPOS>BOND
     1     1     2   ar
     2     2     3   ar
     3     3     4   ar
     4     4     5   ar
     5     5     6   ar
     6     6     7   ar
     7     7     8   ar
     8     8     9   ar
     9     9    10   ar
    10    10    11   ar
    11    11    12   ar
    12    12    13   ar
    13    13    14    1
    14    14    15   ar
    15    15    16   ar
    16    16    17   ar
    17    17    18   ar
    18    18    19   ar
    19    13    20   ar
    20    20    21   ar
    21    21    22   ar
    22    22    23   ar
    23    23    24   ar
    24    24    25   ar
    25    25    26   ar
    26    26    27   ar
    27    27    28   ar
    28    28    29   ar
    29    29     1   ar
    30    28     3   ar
    31     8     4   ar
    32    27     9   ar
    33    25    11   ar
    34    19    14   ar
    35    24    20   ar
    36     1    30    1
    37     2    31    1
    38    10    32    1
    39    12    33    1
    40    15    34    1
    41    16    35    1
    42    17    36    1
    43    18    37    1
    44    19    38    1
    45    21    39    1
    46    23    40    1
    47    26    41    1
