@<TRIPOS>MOLECULE
*****
 39 45 0 0 0
SMALL
GASTEIGER

@<TRIPOS>ATOM
      1 C           7.1288   -0.2373   -0.4047 C.ar    1  UNL1       -0.0232
      2 C           6.4793    0.2939    0.6848 C.ar    1  UNL1       -0.0469
      3 C           5.0512    0.1829    0.5923 C.ar    1  UNL1       -0.0088
      4 C           4.0392    0.5938    1.4791 C.ar    1  UNL1       -0.0295
      5 C           2.6996    0.3752    1.1698 C.ar    1  UNL1        0.0481
      6 N           1.5570    0.6903    1.8827 N.ar    1  UNL1       -0.3541
      7 C           0.4260    0.2914    1.2042 C.ar    1  UNL1        0.0487
      8 C          -0.9504    0.3999    1.5332 C.ar    1  UNL1       -0.0289
      9 C          -1.9421   -0.0942    0.6512 C.ar    1  UNL1        0.0004
     10 C          -3.3646    0.0042    0.9110 C.ar    1  UNL1        0.0282
     11 S          -4.0647   -0.7984    2.2708 S.2     1  UNL1       -0.0949
     12 C          -5.6579   -0.2461    1.9081 C.ar    1  UNL1       -0.0094
     13 C          -5.6464    0.5343    0.7880 C.ar    1  UNL1        0.0269
     14 S          -6.9752    1.3946   -0.0700 S.2     1  UNL1       -0.0961
     15 C          -5.7103    1.9337   -1.1685 C.ar    1  UNL1       -0.0231
     16 C          -4.4139    1.4861   -0.8882 C.ar    1  UNL1       -0.0459
     17 C          -4.3618    0.6538    0.2611 C.ar    1  UNL1        0.0040
     18 C          -1.4131   -0.6721   -0.5106 C.ar    1  UNL1        0.0083
     19 C          -2.1098   -1.2652   -1.5430 C.ar    1  UNL1        0.0100
     20 N          -1.1933   -1.7114   -2.4800 N.ar    1  UNL1       -0.3659
     21 C           0.0922   -1.4240   -2.0683 C.ar    1  UNL1        0.0101
     22 C          -0.0561   -0.7985   -0.8673 C.ar    1  UNL1        0.0097
     23 C           0.9139   -0.2843    0.0417 C.ar    1  UNL1        0.0166
     24 C           2.3138   -0.2520   -0.0162 C.ar    1  UNL1        0.0091
     25 C           3.3190   -0.6611   -0.8987 C.ar    1  UNL1       -0.0377
     26 C           4.6690   -0.4444   -0.5945 C.ar    1  UNL1        0.0200
     27 S           6.0375   -0.8742   -1.5493 S.2     1  UNL1       -0.0966
     28 H           8.1941   -0.2821   -0.5837 H       1  UNL1        0.0694
     29 H           7.0005    0.7461    1.5195 H       1  UNL1        0.0629
     30 H           4.3138    1.0842    2.4097 H       1  UNL1        0.0644
     31 H           1.5529    1.1500    2.7813 H       1  UNL1        0.1659
     32 H          -1.2467    0.8741    2.4660 H       1  UNL1        0.0645
     33 H          -6.5133   -0.5063    2.5156 H       1  UNL1        0.0705
     34 H          -6.0099    2.5748   -1.9863 H       1  UNL1        0.0694
     35 H          -3.5581    1.7571   -1.4951 H       1  UNL1        0.0629
     36 H          -3.1672   -1.4240   -1.7072 H       1  UNL1        0.0813
     37 H          -1.4332   -2.1893   -3.3389 H       1  UNL1        0.1648
     38 H           0.9449   -1.7034   -2.6687 H       1  UNL1        0.0813
     39 H           3.0552   -1.1519   -1.8301 H       1  UNL1        0.0636
@<TRIPOS>BOND
     1     1     2   ar
     2     2     3   ar
     3     3     4   ar
     4     4     5   ar
     5     5     6   ar
     6     6     7   ar
     7     7     8   ar
     8     8     9   ar
     9     9    10    1
    10    10    11   ar
    11    11    12   ar
    12    12    13   ar
    13    13    14   ar
    14    14    15   ar
    15    15    16   ar
    16    16    17   ar
    17     9    18   ar
    18    18    19   ar
    19    19    20   ar
    20    20    21   ar
    21    21    22   ar
    22    22    23   ar
    23    23    24   ar
    24    24    25   ar
    25    25    26   ar
    26    26    27   ar
    27    27     1   ar
    28    26     3   ar
    29    24     5   ar
    30    23     7   ar
    31    17    10   ar
    32    22    18   ar
    33    17    13   ar
    34     1    28    1
    35     2    29    1
    36     4    30    1
    37     6    31    1
    38     8    32    1
    39    12    33    1
    40    15    34    1
    41    16    35    1
    42    19    36    1
    43    20    37    1
    44    21    38    1
    45    25    39    1
