@<TRIPOS>MOLECULE
*****
 38 43 0 0 0
SMALL
GASTEIGER

@<TRIPOS>ATOM
      1 C           7.3299    1.2861    0.0659 C.ar    1  UNL1       -0.0232
      2 C           6.7366    0.0704    0.3136 C.ar    1  UNL1       -0.0469
      3 C           5.3054    0.1170    0.2134 C.ar    1  UNL1       -0.0088
      4 C           4.3389   -0.8910    0.3893 C.ar    1  UNL1       -0.0295
      5 C           2.9867   -0.6006    0.2370 C.ar    1  UNL1        0.0481
      6 N           1.8771   -1.4018    0.3557 N.ar    1  UNL1       -0.3541
      7 C           0.7281   -0.6852    0.1148 C.ar    1  UNL1        0.0481
      8 C          -0.6126   -1.0951    0.1259 C.ar    1  UNL1       -0.0300
      9 C          -1.6103   -0.1427   -0.1503 C.ar    1  UNL1       -0.0152
     10 C          -1.2329    1.1769   -0.4385 C.ar    1  UNL1       -0.0533
     11 C           0.1125    1.5720   -0.4488 C.ar    1  UNL1       -0.0514
     12 C           1.1140    0.6238   -0.1653 C.ar    1  UNL1        0.0075
     13 C           2.5415    0.6745   -0.0891 C.ar    1  UNL1        0.0085
     14 C           3.4998    1.6803   -0.2648 C.ar    1  UNL1       -0.0377
     15 C           4.8637    1.4005   -0.1145 C.ar    1  UNL1        0.0200
     16 S           6.1820    2.4957   -0.2890 S.2     1  UNL1       -0.0966
     17 C          -3.0134   -0.5339   -0.1506 C.ar    1  UNL1       -0.0071
     18 C          -3.5875   -1.5029   -1.0194 C.ar    1  UNL1       -0.0533
     19 C          -4.9789   -1.8844   -1.0166 C.ar    1  UNL1       -0.0605
     20 C          -5.9508   -1.3452   -0.1429 C.ar    1  UNL1       -0.0510
     21 C          -5.3687   -0.4092    0.6998 C.ar    1  UNL1        0.0204
     22 C          -5.9906    0.3105    1.6841 C.ar    1  UNL1        0.0994
     23 O          -5.0758    1.1163    2.3062 O.2     1  UNL1       -0.4698
     24 C          -3.8627    0.9028    1.7080 C.ar    1  UNL1        0.1000
     25 C          -3.9955   -0.0222    0.7036 C.ar    1  UNL1        0.0275
     26 H           8.3850    1.5225    0.0764 H       1  UNL1        0.0694
     27 H           7.2996   -0.8218    0.5577 H       1  UNL1        0.0629
     28 H           4.6590   -1.8979    0.6452 H       1  UNL1        0.0644
     29 H           1.9004   -2.3836    0.5889 H       1  UNL1        0.1659
     30 H          -0.8760   -2.1239    0.3554 H       1  UNL1        0.0644
     31 H          -1.9935    1.9210   -0.6705 H       1  UNL1        0.0624
     32 H           0.3758    2.6007   -0.6764 H       1  UNL1        0.0624
     33 H           3.1798    2.6872   -0.5201 H       1  UNL1        0.0636
     34 H          -2.9389   -1.9887   -1.7510 H       1  UNL1        0.0624
     35 H          -5.2976   -2.6375   -1.7389 H       1  UNL1        0.0618
     36 H          -6.9903   -1.6390   -0.1474 H       1  UNL1        0.0625
     37 H          -7.0004    0.3740    2.0634 H       1  UNL1        0.1035
     38 H          -3.0394    1.4741    2.1135 H       1  UNL1        0.1036
@<TRIPOS>BOND
     1     1     2   ar
     2     2     3   ar
     3     3     4   ar
     4     4     5   ar
     5     5     6   ar
     6     6     7   ar
     7     7     8   ar
     8     8     9   ar
     9     9    10   ar
    10    10    11   ar
    11    11    12   ar
    12    12    13   ar
    13    13    14   ar
    14    14    15   ar
    15    15    16   ar
    16     9    17    1
    17    17    18   ar
    18    18    19   ar
    19    19    20   ar
    20    20    21   ar
    21    21    22   ar
    22    22    23   ar
    23    23    24   ar
    24    24    25   ar
    25    16     1   ar
    26    25    17   ar
    27    15     3   ar
    28    25    21   ar
    29    13     5   ar
    30    12     7   ar
    31     1    26    1
    32     2    27    1
    33     4    28    1
    34     6    29    1
    35     8    30    1
    36    10    31    1
    37    11    32    1
    38    14    33    1
    39    18    34    1
    40    19    35    1
    41    20    36    1
    42    22    37    1
    43    24    38    1
