@<TRIPOS>MOLECULE
*****
 29 33 0 0 0
SMALL
GASTEIGER

@<TRIPOS>ATOM
      1 C          -5.3332    0.9208    0.4388 C.ar    1  UNL1        0.0027
      2 C          -4.9517   -0.3457    0.8203 C.ar    1  UNL1       -0.0366
      3 C          -3.5428   -0.4437    0.6528 C.ar    1  UNL1        0.0016
      4 C          -2.5978   -1.4587    0.8673 C.ar    1  UNL1       -0.0285
      5 C          -1.2502   -1.2236    0.5938 C.ar    1  UNL1        0.0512
      6 N          -0.1556   -2.0612    0.7258 N.ar    1  UNL1       -0.3515
      7 C           0.9595   -1.3732    0.3297 C.ar    1  UNL1        0.0867
      8 C           2.3540   -1.4750    0.1655 C.ar    1  UNL1        0.0088
      9 C           2.7280   -0.2270   -0.3176 C.ar    1  UNL1        0.1458
     10 O           1.6273    0.5992   -0.4448 O.2     1  UNL1       -0.4521
     11 C           0.5662   -0.1412   -0.0383 C.ar    1  UNL1        0.1609
     12 C          -0.8238    0.0189    0.1052 C.ar    1  UNL1        0.0446
     13 C          -1.7599    1.0334   -0.1104 C.ar    1  UNL1       -0.0251
     14 C          -3.1034    0.7868    0.1664 C.ar    1  UNL1        0.0473
     15 N          -4.2082    1.5969    0.0453 N.ar    1  UNL1       -0.3606
     16 C           4.0411    0.2449   -0.6676 C.ar    1  UNL1        0.0739
     17 C           4.3751    1.4986   -1.1469 C.ar    1  UNL1        0.0454
     18 N           5.7162    1.7135   -1.4124 N.ar    1  UNL1       -0.2550
     19 C           6.3858    0.6187   -1.1312 C.ar    1  UNL1        0.0653
     20 S           5.4667   -0.7037   -0.5446 S.2     1  UNL1       -0.0724
     21 H          -6.3037    1.3975    0.4133 H       1  UNL1        0.0807
     22 H          -5.6137   -1.1213    1.1819 H       1  UNL1        0.0638
     23 H          -2.9248   -2.4232    1.2460 H       1  UNL1        0.0645
     24 H          -0.1513   -3.0177    1.0545 H       1  UNL1        0.1660
     25 H           2.9941   -2.3215    0.3655 H       1  UNL1        0.0676
     26 H          -1.4349    1.9983   -0.4890 H       1  UNL1        0.0646
     27 H          -4.1858    2.5513   -0.2865 H       1  UNL1        0.1653
     28 H           3.6688    2.3019   -1.3226 H       1  UNL1        0.0842
     29 H           7.4580    0.5493   -1.2604 H       1  UNL1        0.0907
@<TRIPOS>BOND
     1     1     2   ar
     2     2     3   ar
     3     3     4   ar
     4     4     5   ar
     5     5     6   ar
     6     6     7   ar
     7     7     8   ar
     8     8     9   ar
     9     9    10   ar
    10    10    11   ar
    11    11    12   ar
    12    12    13   ar
    13    13    14   ar
    14    14    15   ar
    15     9    16    1
    16    16    17   ar
    17    17    18   ar
    18    18    19   ar
    19    19    20   ar
    20    15     1   ar
    21    20    16   ar
    22    14     3   ar
    23    12     5   ar
    24    11     7   ar
    25     1    21    1
    26     2    22    1
    27     4    23    1
    28     6    24    1
    29     8    25    1
    30    13    26    1
    31    15    27    1
    32    17    28    1
    33    19    29    1
