@<TRIPOS>MOLECULE
*****
 50 57 0 0 0
SMALL
GASTEIGER

@<TRIPOS>ATOM
      1 C          -6.9843    1.8603   -0.4963 C.ar    1  UNL1        0.0027
      2 C          -6.8611    0.6467    0.1405 C.ar    1  UNL1       -0.0366
      3 C          -5.4788    0.3172    0.1770 C.ar    1  UNL1        0.0003
      4 C          -4.7402   -0.7525    0.6961 C.ar    1  UNL1       -0.0442
      5 C          -3.3248   -0.7468    0.5498 C.ar    1  UNL1       -0.0075
      6 C          -2.4893   -1.7546    1.0774 C.ar    1  UNL1        0.0077
      7 C          -2.8883   -2.8645    1.7882 C.ar    1  UNL1        0.0100
      8 N          -1.7570   -3.5704    2.1222 N.ar    1  UNL1       -0.3659
      9 C          -0.6427   -2.9256    1.6386 C.ar    1  UNL1        0.0100
     10 C          -1.0683   -1.7916    0.9824 C.ar    1  UNL1        0.0077
     11 C          -0.2602   -0.8409    0.3245 C.ar    1  UNL1       -0.0069
     12 C           1.1889   -0.9568    0.2808 C.ar    1  UNL1       -0.0450
     13 C           2.0344   -0.0559   -0.3889 C.ar    1  UNL1       -0.0075
     14 C           3.4734   -0.1761   -0.4466 C.ar    1  UNL1       -0.0081
     15 C           4.2216   -0.4614   -1.6215 C.ar    1  UNL1       -0.0534
     16 C           5.6554   -0.5983   -1.6650 C.ar    1  UNL1       -0.0605
     17 C           6.5000   -0.4671   -0.5396 C.ar    1  UNL1       -0.0526
     18 C           5.7530   -0.1911    0.5973 C.ar    1  UNL1       -0.0000
     19 C           6.2527    0.0018    1.8592 C.ar    1  UNL1        0.0094
     20 N           5.1748    0.2588    2.6806 N.ar    1  UNL1       -0.3659
     21 C           4.0018    0.2296    1.9555 C.ar    1  UNL1        0.0100
     22 C           4.3326   -0.0547    0.6522 C.ar    1  UNL1        0.0071
     23 C           1.2745    0.9304   -1.0181 C.ar    1  UNL1        0.0077
     24 C           1.7904    1.9513   -1.7815 C.ar    1  UNL1        0.0100
     25 N           0.7318    2.6754   -2.2589 N.ar    1  UNL1       -0.3659
     26 C          -0.4531    2.1334   -1.8082 C.ar    1  UNL1        0.0100
     27 C          -0.1664    1.0675   -0.9821 C.ar    1  UNL1        0.0083
     28 C          -1.0886    0.2114   -0.2768 C.ar    1  UNL1       -0.0003
     29 C          -2.5895    0.2827   -0.1271 C.ar    1  UNL1       -0.0069
     30 C          -3.3900    1.3511   -0.5978 C.ar    1  UNL1       -0.0295
     31 C          -4.7906    1.3471   -0.4495 C.ar    1  UNL1        0.0471
     32 N          -5.7267    2.2780   -0.8428 N.ar    1  UNL1       -0.3606
     33 H          -7.8531    2.4614   -0.7281 H       1  UNL1        0.0807
     34 H          -7.6755    0.0585    0.5423 H       1  UNL1        0.0638
     35 H          -5.2513   -1.5597    1.2077 H       1  UNL1        0.0630
     36 H          -3.8605   -3.2256    2.0926 H       1  UNL1        0.0813
     37 H          -1.7454   -4.4358    2.6462 H       1  UNL1        0.1648
     38 H           0.3381   -3.3466    1.8097 H       1  UNL1        0.0813
     39 H           1.6620   -1.7961    0.7888 H       1  UNL1        0.0630
     40 H           3.6766   -0.5939   -2.5577 H       1  UNL1        0.0624
     41 H           6.1132   -0.8200   -2.6295 H       1  UNL1        0.0618
     42 H           7.5741   -0.5708   -0.5816 H       1  UNL1        0.0624
     43 H           7.2585   -0.0122    2.2556 H       1  UNL1        0.0813
     44 H           5.2345    0.4488    3.6722 H       1  UNL1        0.1648
     45 H           3.0523    0.4200    2.4377 H       1  UNL1        0.0813
     46 H           2.8056    2.2216   -2.0397 H       1  UNL1        0.0813
     47 H           0.8062    3.4764   -2.8723 H       1  UNL1        0.1648
     48 H          -1.3675    2.5797   -2.1581 H       1  UNL1        0.0813
     49 H          -2.9433    2.2198   -1.0533 H       1  UNL1        0.0644
     50 H          -5.5098    3.1402   -1.3228 H       1  UNL1        0.1653
@<TRIPOS>BOND
     1     1     2   ar
     2     2     3   ar
     3     3     4   ar
     4     4     5   ar
     5     5     6   ar
     6     6     7   ar
     7     7     8   ar
     8     8     9   ar
     9     9    10   ar
    10    10    11   ar
    11    11    12   ar
    12    12    13   ar
    13    13    14    1
    14    14    15   ar
    15    15    16   ar
    16    16    17   ar
    17    17    18   ar
    18    18    19   ar
    19    19    20   ar
    20    20    21   ar
    21    21    22   ar
    22    13    23   ar
    23    23    24   ar
    24    24    25   ar
    25    25    26   ar
    26    26    27   ar
    27    27    28   ar
    28    28    29   ar
    29    29    30   ar
    30    30    31   ar
    31    31    32   ar
    32    32     1   ar
    33    31     3   ar
    34    29     5   ar
    35    10     6   ar
    36    28    11   ar
    37    22    14   ar
    38    27    23   ar
    39    22    18   ar
    40     1    33    1
    41     2    34    1
    42     4    35    1
    43     7    36    1
    44     8    37    1
    45     9    38    1
    46    12    39    1
    47    15    40    1
    48    16    41    1
    49    17    42    1
    50    19    43    1
    51    20    44    1
    52    21    45    1
    53    24    46    1
    54    25    47    1
    55    26    48    1
    56    30    49    1
    57    32    50    1
