@<TRIPOS>MOLECULE
*****
 49 56 0 0 0
SMALL
GASTEIGER

@<TRIPOS>ATOM
      1 C          -6.8613   -0.3617   -1.9067 C.ar    1  UNL1        0.0027
      2 C          -6.7642   -0.3247   -0.5346 C.ar    1  UNL1       -0.0366
      3 C          -5.3867   -0.2107   -0.2027 C.ar    1  UNL1        0.0003
      4 C          -4.6734   -0.1109    0.9974 C.ar    1  UNL1       -0.0442
      5 C          -3.2554   -0.0022    0.9484 C.ar    1  UNL1       -0.0075
      6 C          -2.4519    0.1481    2.0990 C.ar    1  UNL1        0.0077
      7 C          -2.8883    0.2088    3.4036 C.ar    1  UNL1        0.0100
      8 N          -1.7819    0.3729    4.2026 N.ar    1  UNL1       -0.3659
      9 C          -0.6470    0.4209    3.4271 C.ar    1  UNL1        0.0100
     10 C          -1.0338    0.2832    2.1120 C.ar    1  UNL1        0.0077
     11 C          -0.1927    0.2650    0.9797 C.ar    1  UNL1       -0.0069
     12 C           1.2503    0.4139    1.0872 C.ar    1  UNL1       -0.0450
     13 C           2.1310    0.3617   -0.0053 C.ar    1  UNL1       -0.0075
     14 C           3.5629    0.5064    0.0999 C.ar    1  UNL1       -0.0065
     15 C           4.2349    1.7185    0.4135 C.ar    1  UNL1       -0.0533
     16 C           5.6668    1.8534    0.5294 C.ar    1  UNL1       -0.0605
     17 C           6.5843    0.7919    0.3525 C.ar    1  UNL1       -0.0510
     18 C           5.9056   -0.3821    0.0581 C.ar    1  UNL1        0.0204
     19 C           6.4526   -1.6168   -0.1660 C.ar    1  UNL1        0.0994
     20 O           5.4537   -2.5202   -0.4119 O.2     1  UNL1       -0.4698
     21 C           4.2625   -1.8484   -0.3404 C.ar    1  UNL1        0.1000
     22 C           4.4919   -0.5252   -0.0611 C.ar    1  UNL1        0.0276
     23 C           1.4193    0.1340   -1.1831 C.ar    1  UNL1        0.0077
     24 C           1.9851    0.0080   -2.4301 C.ar    1  UNL1        0.0100
     25 N           0.9713   -0.2608   -3.3095 N.ar    1  UNL1       -0.3659
     26 C          -0.2344   -0.3018   -2.6417 C.ar    1  UNL1        0.0100
     27 C          -0.0151   -0.0095   -1.3125 C.ar    1  UNL1        0.0083
     28 C          -0.9810    0.0719   -0.2443 C.ar    1  UNL1       -0.0003
     29 C          -2.4885   -0.0138   -0.2641 C.ar    1  UNL1       -0.0069
     30 C          -3.2703   -0.0823   -1.4423 C.ar    1  UNL1       -0.0295
     31 C          -4.6741   -0.1862   -1.3937 C.ar    1  UNL1        0.0471
     32 N          -5.5932   -0.2707   -2.4163 N.ar    1  UNL1       -0.3606
     33 H          -7.7188   -0.4407   -2.5610 H       1  UNL1        0.0807
     34 H          -7.5935   -0.3698    0.1588 H       1  UNL1        0.0638
     35 H          -5.2074   -0.1075    1.9405 H       1  UNL1        0.0630
     36 H          -3.8723    0.1536    3.8474 H       1  UNL1        0.0813
     37 H          -1.7997    0.4473    5.2116 H       1  UNL1        0.1648
     38 H           0.3185    0.5442    3.8969 H       1  UNL1        0.0813
     39 H           1.6875    0.5638    2.0734 H       1  UNL1        0.0630
     40 H           3.6326    2.6152    0.5716 H       1  UNL1        0.0624
     41 H           6.0624    2.8413    0.7700 H       1  UNL1        0.0618
     42 H           7.6549    0.9031    0.4440 H       1  UNL1        0.0625
     43 H           7.4563   -2.0164   -0.1863 H       1  UNL1        0.1035
     44 H           3.3786   -2.4473   -0.5107 H       1  UNL1        0.1036
     45 H           3.0104    0.0633   -2.7716 H       1  UNL1        0.0813
     46 H           1.0914   -0.4311   -4.2997 H       1  UNL1        0.1648
     47 H          -1.1090   -0.5585   -3.2136 H       1  UNL1        0.0813
     48 H          -2.8128   -0.0205   -2.4162 H       1  UNL1        0.0644
     49 H          -5.3579   -0.2710   -3.3989 H       1  UNL1        0.1653
@<TRIPOS>BOND
     1     1     2   ar
     2     2     3   ar
     3     3     4   ar
     4     4     5   ar
     5     5     6   ar
     6     6     7   ar
     7     7     8   ar
     8     8     9   ar
     9     9    10   ar
    10    10    11   ar
    11    11    12   ar
    12    12    13   ar
    13    13    14    1
    14    14    15   ar
    15    15    16   ar
    16    16    17   ar
    17    17    18   ar
    18    18    19   ar
    19    19    20   ar
    20    20    21   ar
    21    21    22   ar
    22    13    23   ar
    23    23    24   ar
    24    24    25   ar
    25    25    26   ar
    26    26    27   ar
    27    27    28   ar
    28    28    29   ar
    29    29    30   ar
    30    30    31   ar
    31    31    32   ar
    32    32     1   ar
    33    31     3   ar
    34    29     5   ar
    35    10     6   ar
    36    28    11   ar
    37    22    14   ar
    38    27    23   ar
    39    22    18   ar
    40     1    33    1
    41     2    34    1
    42     4    35    1
    43     7    36    1
    44     8    37    1
    45     9    38    1
    46    12    39    1
    47    15    40    1
    48    16    41    1
    49    17    42    1
    50    19    43    1
    51    21    44    1
    52    24    45    1
    53    25    46    1
    54    26    47    1
    55    30    48    1
    56    32    49    1
