@<TRIPOS>MOLECULE
*****
 31 35 0 0 0
SMALL
GASTEIGER

@<TRIPOS>ATOM
      1 C           6.1490    0.4456   -0.2265 C.ar    1  UNL1        0.0931
      2 C           5.4441    0.0369   -1.3363 C.ar    1  UNL1       -0.0161
      3 C           4.0742    0.0389   -0.9644 C.ar    1  UNL1        0.0208
      4 C           2.8561   -0.2605   -1.5900 C.ar    1  UNL1       -0.0418
      5 C           1.6458   -0.1400   -0.8841 C.ar    1  UNL1        0.0010
      6 C           0.2792   -0.3572   -1.2091 C.ar    1  UNL1       -0.0287
      7 C          -0.5059   -0.0736   -0.0988 C.ar    1  UNL1        0.0475
      8 C          -1.9679   -0.1377    0.0880 C.ar    1  UNL1        0.0005
      9 C          -2.7984   -0.5426   -0.9762 C.ar    1  UNL1       -0.0505
     10 C          -4.1958   -0.6244   -0.8626 C.ar    1  UNL1       -0.0341
     11 C          -4.7320   -0.2801    0.3740 C.ar    1  UNL1        0.0858
     12 N          -6.0046   -0.2314    0.8684 N.ar    1  UNL1       -0.2571
     13 N          -6.0293    0.1701    2.1500 N.ar    1  UNL1       -0.0673
     14 N          -4.7741    0.3924    2.5209 N.ar    1  UNL1       -0.1296
     15 C          -3.9610    0.1242    1.4520 C.ar    1  UNL1        0.1131
     16 C          -2.5654    0.1993    1.3180 C.ar    1  UNL1       -0.0233
     17 N           0.3792    0.3121    0.8901 N.ar    1  UNL1       -0.3540
     18 C           1.6773    0.2801    0.4417 C.ar    1  UNL1        0.0505
     19 C           2.8743    0.5840    1.0873 C.ar    1  UNL1        0.0051
     20 C           4.0474    0.4537    0.3605 C.ar    1  UNL1        0.1368
     21 O           5.3072    0.7012    0.8099 O.2     1  UNL1       -0.4629
     22 H           7.1992    0.5986   -0.0209 H       1  UNL1        0.1029
     23 H           5.8652   -0.2294   -2.2949 H       1  UNL1        0.0655
     24 H           2.8451   -0.5875   -2.6258 H       1  UNL1        0.0631
     25 H          -0.0831   -0.6909   -2.1722 H       1  UNL1        0.0645
     26 H          -2.3620   -0.8085   -1.9373 H       1  UNL1        0.0625
     27 H          -4.8119   -0.9391   -1.6978 H       1  UNL1        0.0639
     28 H          -6.8796   -0.4497    0.4087 H       1  UNL1        0.1907
     29 H          -1.9949    0.5187    2.1800 H       1  UNL1        0.0646
     30 H           0.1221    0.5853    1.8264 H       1  UNL1        0.1659
     31 H           2.9003    0.9115    2.1208 H       1  UNL1        0.0675
@<TRIPOS>BOND
     1     1     2   ar
     2     2     3   ar
     3     3     4   ar
     4     4     5   ar
     5     5     6   ar
     6     6     7   ar
     7     7     8    1
     8     8     9   ar
     9     9    10   ar
    10    10    11   ar
    11    11    12   ar
    12    12    13   ar
    13    13    14   ar
    14    14    15   ar
    15    15    16   ar
    16     7    17   ar
    17    17    18   ar
    18    18    19   ar
    19    19    20   ar
    20    20    21   ar
    21    21     1   ar
    22    20     3   ar
    23    18     5   ar
    24    16     8   ar
    25    15    11   ar
    26     1    22    1
    27     2    23    1
    28     4    24    1
    29     6    25    1
    30     9    26    1
    31    10    27    1
    32    12    28    1
    33    16    29    1
    34    17    30    1
    35    19    31    1
