@<TRIPOS>MOLECULE
*****
 25 28 0 0 0
SMALL
GASTEIGER

@<TRIPOS>ATOM
      1 C           4.8873   -0.2495    0.1587 C.ar    1  UNL1        0.0931
      2 C           4.2334    0.4875   -0.8031 C.ar    1  UNL1       -0.0161
      3 C           2.8447    0.3270   -0.5561 C.ar    1  UNL1        0.0208
      4 C           1.6550    0.7870   -1.1371 C.ar    1  UNL1       -0.0418
      5 C           0.4095    0.4087   -0.6046 C.ar    1  UNL1        0.0010
      6 C          -0.9428    0.6915   -0.9466 C.ar    1  UNL1       -0.0285
      7 C          -1.7516    0.0296   -0.0485 C.ar    1  UNL1        0.0521
      8 C          -3.2949    0.0296   -0.0106 C.ar    1  UNL1        0.0569
      9 C          -4.1666   -0.6238    0.8779 C.ar    1  UNL1        0.0791
     10 N          -5.4488   -0.3826    0.5893 N.ar    1  UNL1       -0.0862
     11 O          -5.4214    0.4524   -0.5193 O.2     1  UNL1       -0.3623
     12 C          -4.1313    0.6924   -0.8694 C.ar    1  UNL1        0.1333
     13 N          -0.9412   -0.6450    0.8267 N.ar    1  UNL1       -0.3539
     14 C           0.3796   -0.4309    0.5102 C.ar    1  UNL1        0.0505
     15 C           1.5486   -0.9010    1.1052 C.ar    1  UNL1        0.0051
     16 C           2.7562   -0.5058    0.5512 C.ar    1  UNL1        0.1368
     17 O           3.9962   -0.8568    0.9865 O.2     1  UNL1       -0.4629
     18 H           5.9290   -0.4355    0.3799 H       1  UNL1        0.1029
     19 H           4.6998    1.0685   -1.5854 H       1  UNL1        0.0655
     20 H           1.6942    1.4400   -2.0046 H       1  UNL1        0.0631
     21 H          -1.2733    1.3154   -1.7664 H       1  UNL1        0.0645
     22 H          -3.9393   -1.2619    1.7189 H       1  UNL1        0.0870
     23 H          -3.9934    1.3349   -1.7254 H       1  UNL1        0.1064
     24 H          -1.2576   -1.2184    1.5954 H       1  UNL1        0.1659
     25 H           1.5286   -1.5534    1.9714 H       1  UNL1        0.0675
@<TRIPOS>BOND
     1     1     2   ar
     2     2     3   ar
     3     3     4   ar
     4     4     5   ar
     5     5     6   ar
     6     6     7   ar
     7     7     8    1
     8     8     9   ar
     9     9    10   ar
    10    10    11   ar
    11    11    12   ar
    12     7    13   ar
    13    13    14   ar
    14    14    15   ar
    15    15    16   ar
    16    16    17   ar
    17    17     1   ar
    18    16     3   ar
    19    14     5   ar
    20    12     8   ar
    21     1    18    1
    22     2    19    1
    23     4    20    1
    24     6    21    1
    25     9    22    1
    26    12    23    1
    27    13    24    1
    28    15    25    1
