@<TRIPOS>MOLECULE
*****
 25 28 0 0 0
SMALL
GASTEIGER

@<TRIPOS>ATOM
      1 C           4.9676   -0.1962    0.0339 C.ar    1  UNL1        0.0931
      2 C           4.2090   -1.1297   -0.6359 C.ar    1  UNL1       -0.0161
      3 C           2.8527   -0.7588   -0.4409 C.ar    1  UNL1        0.0208
      4 C           1.6027   -1.2560   -0.8339 C.ar    1  UNL1       -0.0418
      5 C           0.4207   -0.6041   -0.4397 C.ar    1  UNL1        0.0011
      6 C          -0.9636   -0.8414   -0.6611 C.ar    1  UNL1       -0.0271
      7 C          -1.6690    0.1496   -0.0149 C.ar    1  UNL1        0.0665
      8 C          -3.2165    0.2895    0.0141 C.ar    1  UNL1        0.0942
      9 C          -3.8851    1.2990    0.6745 C.ar    1  UNL1        0.0045
     10 S          -5.5788    1.1042    0.4688 S.2     1  UNL1       -0.0832
     11 C          -5.2791   -0.2965   -0.4744 C.ar    1  UNL1        0.0654
     12 N          -4.0175   -0.6234   -0.6433 N.ar    1  UNL1       -0.2460
     13 N          -0.7671    0.9815    0.5916 N.ar    1  UNL1       -0.3528
     14 C           0.5147    0.5452    0.3488 C.ar    1  UNL1        0.0505
     15 C           1.7459    1.0582    0.7518 C.ar    1  UNL1        0.0051
     16 C           2.8876    0.3869    0.3426 C.ar    1  UNL1        0.1368
     17 O           4.1719    0.7298    0.6318 O.2     1  UNL1       -0.4629
     18 H           6.0303   -0.0567    0.1747 H       1  UNL1        0.1029
     19 H           4.5860   -1.9733   -1.1955 H       1  UNL1        0.0655
     20 H           1.5431   -2.1509   -1.4473 H       1  UNL1        0.0631
     21 H          -1.4018   -1.6502   -1.2320 H       1  UNL1        0.0645
     22 H          -3.4893    2.1200    1.2519 H       1  UNL1        0.0716
     23 H          -6.0875   -0.8740   -0.9033 H       1  UNL1        0.0907
     24 H          -0.9992    1.7972    1.1384 H       1  UNL1        0.1660
     25 H           1.8223    1.9501    1.3639 H       1  UNL1        0.0675
@<TRIPOS>BOND
     1     1     2   ar
     2     2     3   ar
     3     3     4   ar
     4     4     5   ar
     5     5     6   ar
     6     6     7   ar
     7     7     8    1
     8     8     9   ar
     9     9    10   ar
    10    10    11   ar
    11    11    12   ar
    12     7    13   ar
    13    13    14   ar
    14    14    15   ar
    15    15    16   ar
    16    16    17   ar
    17    17     1   ar
    18    16     3   ar
    19    14     5   ar
    20    12     8   ar
    21     1    18    1
    22     2    19    1
    23     4    20    1
    24     6    21    1
    25     9    22    1
    26    11    23    1
    27    13    24    1
    28    15    25    1
