@<TRIPOS>MOLECULE
*****
 30 34 0 0 0
SMALL
GASTEIGER

@<TRIPOS>ATOM
      1 C           6.1110    0.0104   -0.4144 C.ar    1  UNL1        0.0931
      2 C           5.2670    0.5338   -1.3680 C.ar    1  UNL1       -0.0160
      3 C           3.9463    0.3087   -0.9006 C.ar    1  UNL1        0.0236
      4 C           2.6508    0.5772   -1.3604 C.ar    1  UNL1       -0.0080
      5 C           1.5746    0.1781   -0.5750 C.ar    1  UNL1        0.1365
      6 O           0.2606    0.3584   -0.8686 O.2     1  UNL1       -0.4548
      7 C          -0.4687   -0.1762    0.1594 C.ar    1  UNL1        0.1363
      8 C          -1.9237   -0.0837    0.0353 C.ar    1  UNL1        0.0195
      9 C          -2.7570   -0.6057    1.0434 C.ar    1  UNL1       -0.0490
     10 C          -4.1574   -0.5415    0.9706 C.ar    1  UNL1       -0.0341
     11 C          -4.6873    0.0716   -0.1621 C.ar    1  UNL1        0.0858
     12 N          -5.9616    0.3212   -0.5873 N.ar    1  UNL1       -0.2571
     13 N          -5.9810    0.9528   -1.7720 N.ar    1  UNL1       -0.0673
     14 N          -4.7201    1.1302   -2.1480 N.ar    1  UNL1       -0.1296
     15 C          -3.9083    0.6001   -1.1805 C.ar    1  UNL1        0.1131
     16 C          -2.5113    0.5266   -1.0901 C.ar    1  UNL1       -0.0218
     17 C           0.3917   -0.6981    1.1096 C.ar    1  UNL1       -0.0080
     18 C           1.7134   -0.4737    0.6435 C.ar    1  UNL1        0.0243
     19 C           3.0083   -0.7428    1.1046 C.ar    1  UNL1       -0.0080
     20 C           4.0854   -0.3443    0.3200 C.ar    1  UNL1        0.1356
     21 O           5.4015   -0.5248    0.6141 O.2     1  UNL1       -0.4629
     22 H           7.1862   -0.0578   -0.3229 H       1  UNL1        0.1029
     23 H           5.5671    1.0178   -2.2863 H       1  UNL1        0.0655
     24 H           2.4812    1.0835   -2.3049 H       1  UNL1        0.0661
     25 H          -2.3197   -1.0807    1.9201 H       1  UNL1        0.0625
     26 H          -4.7833   -0.9492    1.7570 H       1  UNL1        0.0639
     27 H          -6.8418    0.0987   -0.1397 H       1  UNL1        0.1907
     28 H          -1.9090    0.9425   -1.8913 H       1  UNL1        0.0647
     29 H           0.1075   -1.1841    2.0314 H       1  UNL1        0.0661
     30 H           3.1778   -1.2491    2.0490 H       1  UNL1        0.0661
@<TRIPOS>BOND
     1     1     2   ar
     2     2     3   ar
     3     3     4   ar
     4     4     5   ar
     5     5     6   ar
     6     6     7   ar
     7     7     8    1
     8     8     9   ar
     9     9    10   ar
    10    10    11   ar
    11    11    12   ar
    12    12    13   ar
    13    13    14   ar
    14    14    15   ar
    15    15    16   ar
    16     7    17   ar
    17    17    18   ar
    18    18    19   ar
    19    19    20   ar
    20    20    21   ar
    21    21     1   ar
    22    20     3   ar
    23    18     5   ar
    24    16     8   ar
    25    15    11   ar
    26     1    22    1
    27     2    23    1
    28     4    24    1
    29     9    25    1
    30    10    26    1
    31    12    27    1
    32    16    28    1
    33    17    29    1
    34    19    30    1
