@<TRIPOS>MOLECULE
*****
 49 55 0 0 0
SMALL
GASTEIGER

@<TRIPOS>ATOM
      1 SI          1.8956   -3.9938   -1.8093 Si      1  UNL1        0.0000
      2 C           0.4174   -3.0064   -1.2503 C.2     1  UNL1        0.0000
      3 C           0.7704   -1.8044   -0.7415 C.ar    1  UNL1        0.0000
      4 C          -0.1801   -0.7568   -0.3047 C.ar    1  UNL1        0.0000
      5 C          -1.5547   -1.0170   -0.2646 C.ar    1  UNL1        0.0000
      6 C          -2.4915   -0.0240    0.0367 C.ar    1  UNL1        0.0000
      7 C          -3.9112   -0.4189    0.0723 C.ar    1  UNL1        0.0000
      8 C          -4.5134   -0.8129    1.2772 C.ar    1  UNL1        0.0000
      9 C          -5.8564   -1.1938    1.3112 C.ar    1  UNL1        0.0000
     10 C          -6.6126   -1.1881    0.1406 C.ar    1  UNL1        0.0000
     11 C          -6.0280   -0.8028   -1.0644 C.ar    1  UNL1        0.0000
     12 C          -4.6849   -0.4220   -1.0989 C.ar    1  UNL1        0.0000
     13 C          -2.0498    1.3014    0.2519 C.ar    1  UNL1        0.0000
     14 C          -2.9863    2.3412    0.4866 C.ar    1  UNL1        0.0000
     15 C          -2.6042    3.6673    0.6532 C.ar    1  UNL1        0.0000
     16 C          -1.2673    3.9910    0.5737 C.ar    1  UNL1        0.0000
     17 C          -0.3242    2.9821    0.3558 C.ar    1  UNL1        0.0000
     18 C          -0.6528    1.6020    0.2212 C.ar    1  UNL1        0.0000
     19 C           0.3133    0.5318    0.0301 C.ar    1  UNL1        0.0000
     20 C           1.8100    0.6971    0.2097 C.ar    1  UNL1        0.0000
     21 N           2.1998    1.8265    0.8479 N.ar    1  UNL1        0.0000
     22 C           3.5061    2.0360    1.0754 C.ar    1  UNL1        0.0000
     23 C           4.5030    1.1514    0.7149 C.ar    1  UNL1        0.0000
     24 C           5.8527    1.4363    0.9838 C.ar    1  UNL1        0.0000
     25 C           6.8319    0.5246    0.6304 C.ar    1  UNL1        0.0000
     26 C           6.4190   -0.6384    0.0241 C.ar    1  UNL1        0.0000
     27 N           5.1247   -0.9268   -0.2418 N.ar    1  UNL1        0.0000
     28 C           4.1378   -0.0502    0.0854 C.ar    1  UNL1        0.0000
     29 C           2.7585   -0.2863   -0.1609 C.ar    1  UNL1        0.0000
     30 C           2.2265   -1.5522   -0.7336 C.ar    1  UNL1        0.0000
     31 C           2.9466   -2.5622   -1.2699 C.2     1  UNL1        0.0000
     32 H           2.1016   -5.2112   -0.9879 H       1  UNL1        0.0000
     33 H           1.9078   -4.2024   -3.2775 H       1  UNL1        0.0000
     34 H          -0.5685   -3.4132   -1.3989 H       1  UNL1        0.0000
     35 H          -1.9309   -2.0168   -0.4687 H       1  UNL1        0.0000
     36 H          -3.9329   -0.8209    2.1977 H       1  UNL1        0.0000
     37 H          -6.3107   -1.4946    2.2516 H       1  UNL1        0.0000
     38 H          -7.6580   -1.4844    0.1674 H       1  UNL1        0.0000
     39 H          -6.6164   -0.7981   -1.9781 H       1  UNL1        0.0000
     40 H          -4.2397   -0.1214   -2.0453 H       1  UNL1        0.0000
     41 H          -4.0530    2.1264    0.5309 H       1  UNL1        0.0000
     42 H          -3.3511    4.4364    0.8247 H       1  UNL1        0.0000
     43 H          -0.9431    5.0230    0.6739 H       1  UNL1        0.0000
     44 H           0.7025    3.3218    0.2621 H       1  UNL1        0.0000
     45 H           3.7287    2.9730    1.5791 H       1  UNL1        0.0000
     46 H           6.1405    2.3647    1.4713 H       1  UNL1        0.0000
     47 H           7.8808    0.7137    0.8251 H       1  UNL1        0.0000
     48 H           7.1321   -1.4005   -0.2770 H       1  UNL1        0.0000
     49 H           4.0145   -2.6270   -1.3928 H       1  UNL1        0.0000
@<TRIPOS>BOND
     1     1     2    1
     2     2     3    2
     3     3     4   ar
     4     4     5   ar
     5     5     6   ar
     6     6     7    1
     7     7     8   ar
     8     8     9   ar
     9     9    10   ar
    10    10    11   ar
    11    11    12   ar
    12     6    13   ar
    13    13    14   ar
    14    14    15   ar
    15    15    16   ar
    16    16    17   ar
    17    17    18   ar
    18    18    19   ar
    19    19    20   ar
    20    20    21   ar
    21    21    22   ar
    22    22    23   ar
    23    23    24   ar
    24    24    25   ar
    25    25    26   ar
    26    26    27   ar
    27    27    28   ar
    28    28    29   ar
    29    29    30   ar
    30    30    31    2
    31    31     1    1
    32    30     3   ar
    33    19     4   ar
    34    29    20   ar
    35    12     7   ar
    36    18    13   ar
    37    28    23   ar
    38     1    32    1
    39     1    33    1
    40     2    34    1
    41     5    35    1
    42     8    36    1
    43     9    37    1
    44    10    38    1
    45    11    39    1
    46    12    40    1
    47    14    41    1
    48    15    42    1
    49    16    43    1
    50    17    44    1
    51    22    45    1
    52    24    46    1
    53    25    47    1
    54    26    48    1
    55    31    49    1
