@<TRIPOS>MOLECULE
*****
 24 27 0 0 0
SMALL
GASTEIGER

@<TRIPOS>ATOM
      1 C          -4.8251   -0.0905   -0.4183 C.ar    1  UNL1        0.0931
      2 C          -4.0279   -0.9875   -1.0933 C.ar    1  UNL1       -0.0160
      3 C          -2.6865   -0.6384   -0.7897 C.ar    1  UNL1        0.0236
      4 C          -1.4147   -1.1174   -1.1291 C.ar    1  UNL1       -0.0080
      5 C          -0.3021   -0.4711   -0.6010 C.ar    1  UNL1        0.1365
      6 O           0.9964   -0.8023   -0.8254 O.2     1  UNL1       -0.4546
      7 C           1.7686    0.0798   -0.1230 C.ar    1  UNL1        0.1408
      8 C           3.3084    0.0429   -0.1135 C.ar    1  UNL1        0.0758
      9 C           4.1546   -0.8525   -0.7860 C.ar    1  UNL1        0.0807
     10 N           5.4440   -0.5896   -0.5504 N.ar    1  UNL1       -0.0861
     11 O           5.4429    0.5084    0.3000 O.2     1  UNL1       -0.3622
     12 C           4.1606    0.8790    0.5551 C.ar    1  UNL1        0.1348
     13 C           0.9594    0.9753    0.5504 C.ar    1  UNL1       -0.0078
     14 C          -0.3826    0.6266    0.2471 C.ar    1  UNL1        0.0243
     15 C          -1.6538    1.1064    0.5872 C.ar    1  UNL1       -0.0080
     16 C          -2.7669    0.4606    0.0595 C.ar    1  UNL1        0.1356
     17 O          -4.0670    0.7924    0.2842 O.2     1  UNL1       -0.4629
     18 H          -5.8945    0.0476   -0.3379 H       1  UNL1        0.1029
     19 H          -4.3723   -1.7932   -1.7258 H       1  UNL1        0.0655
     20 H          -1.2919   -1.9712   -1.7873 H       1  UNL1        0.0661
     21 H           3.8953   -1.6789   -1.4325 H       1  UNL1        0.0871
     22 H           4.0443    1.7286    1.2103 H       1  UNL1        0.1065
     23 H           1.2892    1.7849    1.1856 H       1  UNL1        0.0661
     24 H          -1.7786    1.9600    1.2452 H       1  UNL1        0.0661
@<TRIPOS>BOND
     1     1     2   ar
     2     2     3   ar
     3     3     4   ar
     4     4     5   ar
     5     5     6   ar
     6     6     7   ar
     7     7     8    1
     8     8     9   ar
     9     9    10   ar
    10    10    11   ar
    11    11    12   ar
    12     7    13   ar
    13    13    14   ar
    14    14    15   ar
    15    15    16   ar
    16    16    17   ar
    17    17     1   ar
    18    16     3   ar
    19    14     5   ar
    20    12     8   ar
    21     1    18    1
    22     2    19    1
    23     4    20    1
    24     9    21    1
    25    12    22    1
    26    13    23    1
    27    15    24    1
