@<TRIPOS>MOLECULE
*****
 24 27 0 0 0
SMALL
GASTEIGER

@<TRIPOS>ATOM
      1 C          -4.8899   -0.2920   -0.3606 C.ar    1  UNL1        0.0931
      2 C          -4.1890   -0.5976    0.7844 C.ar    1  UNL1       -0.0160
      3 C          -2.8180   -0.3925    0.4813 C.ar    1  UNL1        0.0236
      4 C          -1.6018   -0.5116    1.1660 C.ar    1  UNL1       -0.0080
      5 C          -0.4273   -0.2036    0.4874 C.ar    1  UNL1        0.1365
      6 O           0.8307   -0.2649    0.9993 O.2     1  UNL1       -0.4532
      7 C           1.6871    0.1175    0.0046 C.ar    1  UNL1        0.1549
      8 C           3.2363    0.1962    0.1471 C.ar    1  UNL1        0.1131
      9 C           3.8863   -0.1226    1.3208 C.ar    1  UNL1        0.0061
     10 S           5.5775    0.0769    1.1165 S.2     1  UNL1       -0.0831
     11 C           5.3014    0.5669   -0.5050 C.ar    1  UNL1        0.0655
     12 N           4.0478    0.5919   -0.9011 N.ar    1  UNL1       -0.2443
     13 C           0.9751    0.4219   -1.1393 C.ar    1  UNL1       -0.0064
     14 C          -0.3946    0.2173   -0.8373 C.ar    1  UNL1        0.0243
     15 C          -1.6103    0.3366   -1.5225 C.ar    1  UNL1       -0.0080
     16 C          -2.7847    0.0288   -0.8443 C.ar    1  UNL1        0.1356
     17 O          -4.0446    0.0893   -1.3543 O.2     1  UNL1       -0.4629
     18 H          -5.9398   -0.2942   -0.6187 H       1  UNL1        0.1029
     19 H          -4.6145   -0.9274    1.7213 H       1  UNL1        0.0655
     20 H          -1.5679   -0.8357    2.2008 H       1  UNL1        0.0661
     21 H           3.4606   -0.4524    2.2576 H       1  UNL1        0.0716
     22 H           6.1197    0.8387   -1.1590 H       1  UNL1        0.0907
     23 H           1.4044    0.7518   -2.0753 H       1  UNL1        0.0662
     24 H          -1.6446    0.6607   -2.5575 H       1  UNL1        0.0661
@<TRIPOS>BOND
     1     1     2   ar
     2     2     3   ar
     3     3     4   ar
     4     4     5   ar
     5     5     6   ar
     6     6     7   ar
     7     7     8    1
     8     8     9   ar
     9     9    10   ar
    10    10    11   ar
    11    11    12   ar
    12     7    13   ar
    13    13    14   ar
    14    14    15   ar
    15    15    16   ar
    16    16    17   ar
    17    17     1   ar
    18    16     3   ar
    19    14     5   ar
    20    12     8   ar
    21     1    18    1
    22     2    19    1
    23     4    20    1
    24     9    21    1
    25    11    22    1
    26    13    23    1
    27    15    24    1
