@<TRIPOS>MOLECULE
*****
 35 40 0 0 0
SMALL
GASTEIGER

@<TRIPOS>ATOM
      1 C          -6.8791   -0.0893    0.0305 C.ar    1  UNL1        0.0281
      2 C          -5.9771    0.4742   -0.8583 C.ar    1  UNL1       -0.0358
      3 C          -4.6062    0.3467   -0.6035 C.ar    1  UNL1       -0.0139
      4 C          -3.6455    0.8969   -1.4689 C.ar    1  UNL1       -0.0395
      5 C          -2.2745    0.7451   -1.1742 C.ar    1  UNL1        0.0226
      6 S          -0.9498    1.3381   -2.0973 S.2     1  UNL1       -0.0866
      7 C           0.2091    0.6988   -1.0121 C.ar    1  UNL1        0.0393
      8 C           1.6104    0.7748   -1.0855 C.ar    1  UNL1       -0.0366
      9 C           2.3688    0.1667   -0.0768 C.ar    1  UNL1        0.0049
     10 C           1.6552   -0.4738    0.9356 C.ar    1  UNL1        0.0361
     11 N           0.3102   -0.5592    1.0431 N.ar    1  UNL1       -0.2532
     12 C          -0.4029    0.0365    0.0465 C.ar    1  UNL1        0.0858
     13 C          -1.8404    0.0598   -0.0406 C.ar    1  UNL1        0.0158
     14 C          -2.8216   -0.4902    0.8229 C.ar    1  UNL1       -0.0423
     15 C          -4.1931   -0.3476    0.5433 C.ar    1  UNL1        0.0009
     16 C          -5.1882   -0.8751    1.3700 C.ar    1  UNL1        0.0353
     17 N          -6.5171   -0.7620    1.1406 N.ar    1  UNL1       -0.2626
     18 C           3.8311    0.2242   -0.0880 C.ar    1  UNL1        0.0299
     19 C           4.5761    1.3843   -0.3589 C.ar    1  UNL1        0.0375
     20 N           5.9419    1.5322   -0.3995 N.ar    1  UNL1       -0.2604
     21 C           6.7634    0.4713   -0.1578 C.ar    1  UNL1        0.0557
     22 C           6.1692   -0.7713    0.1318 C.ar    1  UNL1        0.1185
     23 N           6.8114   -1.9210    0.3931 N.ar    1  UNL1       -0.1892
     24 S           5.6386   -3.0654    0.6507 S.2     1  UNL1        0.1165
     25 N           4.2689   -2.1524    0.4508 N.ar    1  UNL1       -0.1901
     26 C           4.6658   -0.8978    0.1678 C.ar    1  UNL1        0.1105
     27 H          -7.9499   -0.0105   -0.1347 H       1  UNL1        0.0830
     28 H          -6.3447    1.0018   -1.7322 H       1  UNL1        0.0639
     29 H          -3.9484    1.4376   -2.3623 H       1  UNL1        0.0635
     30 H           2.0803    1.2842   -1.9224 H       1  UNL1        0.0636
     31 H           2.1784   -0.9630    1.7567 H       1  UNL1        0.0836
     32 H          -2.4905   -1.0277    1.7097 H       1  UNL1        0.0631
     33 H          -4.9349   -1.4241    2.2737 H       1  UNL1        0.0836
     34 H           4.0534    2.3213   -0.5605 H       1  UNL1        0.0836
     35 H           7.8318    0.6360   -0.2010 H       1  UNL1        0.0852
@<TRIPOS>BOND
     1     1     2   ar
     2     2     3   ar
     3     3     4   ar
     4     4     5   ar
     5     5     6   ar
     6     6     7   ar
     7     7     8   ar
     8     8     9   ar
     9     9    10   ar
    10    10    11   ar
    11    11    12   ar
    12    12    13   ar
    13    13    14   ar
    14    14    15   ar
    15    15    16   ar
    16    16    17   ar
    17     9    18    1
    18    18    19   ar
    19    19    20   ar
    20    20    21   ar
    21    21    22   ar
    22    22    23   ar
    23    23    24   ar
    24    24    25   ar
    25    25    26   ar
    26    17     1   ar
    27    26    18   ar
    28    15     3   ar
    29    26    22   ar
    30    13     5   ar
    31    12     7   ar
    32     1    27    1
    33     2    28    1
    34     4    29    1
    35     8    30    1
    36    10    31    1
    37    14    32    1
    38    16    33    1
    39    19    34    1
    40    21    35    1
