@<TRIPOS>MOLECULE
*****
 31 36 0 0 0
SMALL
GASTEIGER

@<TRIPOS>ATOM
      1 C           6.1225   -1.9202   -0.2973 C.ar    1  UNL1        0.0931
      2 C           6.1797   -0.6650    0.2655 C.ar    1  UNL1       -0.0161
      3 C           4.8393   -0.2097    0.3627 C.ar    1  UNL1        0.0212
      4 C           4.1928    0.9404    0.8234 C.ar    1  UNL1       -0.0366
      5 C           2.7919    1.0419    0.7586 C.ar    1  UNL1        0.0218
      6 S           1.8407    2.3831    1.2804 S.2     1  UNL1       -0.0876
      7 C           0.3808    1.5681    0.8033 C.ar    1  UNL1        0.0282
      8 C          -1.0080    1.8947    0.8395 C.ar    1  UNL1       -0.0319
      9 C          -1.7964    0.8783    0.3256 C.ar    1  UNL1        0.0311
     10 S          -0.8464   -0.4619   -0.1959 S.2     1  UNL1       -0.0864
     11 C           0.6282    0.3379    0.2756 C.ar    1  UNL1        0.0348
     12 C           2.0229   -0.0008    0.2345 C.ar    1  UNL1        0.0070
     13 C           2.6775   -1.1586   -0.2291 C.ar    1  UNL1       -0.0095
     14 C           4.0573   -1.2304   -0.1527 C.ar    1  UNL1        0.1354
     15 O           4.8347   -2.2715   -0.5546 O.2     1  UNL1       -0.4629
     16 C          -3.2389    0.8865    0.2159 C.ar    1  UNL1        0.0687
     17 S          -4.2338    2.2287    0.7347 S.2     1  UNL1       -0.0918
     18 C          -5.7237    1.4654    0.2783 C.ar    1  UNL1       -0.0128
     19 C          -5.4184    0.2573   -0.2350 C.ar    1  UNL1        0.0278
     20 C          -6.0607   -0.8620   -0.7832 C.ar    1  UNL1       -0.0156
     21 C          -5.0258   -1.7498   -1.0968 C.ar    1  UNL1        0.0932
     22 O          -3.7635   -1.2803   -0.7889 O.2     1  UNL1       -0.4618
     23 C          -4.0798   -0.0584   -0.2703 C.ar    1  UNL1        0.1500
     24 H           6.8679   -2.6558   -0.5659 H       1  UNL1        0.1029
     25 H           7.0766   -0.1438    0.5677 H       1  UNL1        0.0655
     26 H           4.7771    1.7605    1.2340 H       1  UNL1        0.0636
     27 H          -1.3852    2.8329    1.2271 H       1  UNL1        0.0640
     28 H           2.1120   -1.9886   -0.6426 H       1  UNL1        0.0661
     29 H          -6.6778    1.9526    0.4200 H       1  UNL1        0.0701
     30 H          -7.1156   -1.0329   -0.9421 H       1  UNL1        0.0655
     31 H          -5.0279   -2.7387   -1.5368 H       1  UNL1        0.1030
@<TRIPOS>BOND
     1     1     2   ar
     2     2     3   ar
     3     3     4   ar
     4     4     5   ar
     5     5     6   ar
     6     6     7   ar
     7     7     8   ar
     8     8     9   ar
     9     9    10   ar
    10    10    11   ar
    11    11    12   ar
    12    12    13   ar
    13    13    14   ar
    14    14    15   ar
    15     9    16    1
    16    16    17   ar
    17    17    18   ar
    18    18    19   ar
    19    19    20   ar
    20    20    21   ar
    21    21    22   ar
    22    22    23   ar
    23    15     1   ar
    24    23    16   ar
    25    14     3   ar
    26    23    19   ar
    27    12     5   ar
    28    11     7   ar
    29     1    24    1
    30     2    25    1
    31     4    26    1
    32     8    27    1
    33    13    28    1
    34    18    29    1
    35    20    30    1
    36    21    31    1
