@<TRIPOS>MOLECULE
*****
 35 39 0 0 0
SMALL
GASTEIGER

@<TRIPOS>ATOM
      1 C          -5.4931   -0.9955    1.1211 C.3     1  UNL1        0.0000
      2 C          -5.5954    0.3287    0.4084 C.2     1  UNL1        0.0000
      3 C          -4.3690    0.7390    0.0554 C.ar    1  UNL1        0.0000
      4 C          -3.9668    1.9518   -0.6475 C.ar    1  UNL1        0.0000
      5 C          -2.6565    2.1740   -0.9061 C.ar    1  UNL1        0.0000
      6 C          -1.7428    1.1764   -0.4600 C.ar    1  UNL1        0.0000
      7 N          -0.3896    1.2453   -0.6303 N.ar    1  UNL1        0.0000
      8 C           0.1986    0.1124   -0.0893 C.ar    1  UNL1        0.0000
      9 C          -0.8160   -0.6646    0.4590 C.ar    1  UNL1        0.0000
     10 C          -2.0269    0.0021    0.2121 C.ar    1  UNL1        0.0000
     11 C          -3.3891   -0.2614    0.4988 C.ar    1  UNL1        0.0000
     12 C          -4.0141   -1.2700    1.1155 C.2     1  UNL1        0.0000
     13 C           1.6007   -0.0463   -0.1380 C.2     1  UNL1        0.0000
     14 C           2.3187   -0.5690    0.8771 C.2     1  UNL1        0.0000
     15 C           3.7589   -0.6713    0.5990 C.ar    1  UNL1        0.0000
     16 N           4.5901   -1.1577    1.5360 N.ar    1  UNL1        0.0000
     17 C           5.8958   -1.2112    1.1855 C.ar    1  UNL1        0.0000
     18 C           6.3974   -0.8024   -0.0486 C.ar    1  UNL1        0.0000
     19 C           5.5144   -0.3013   -1.0027 C.ar    1  UNL1        0.0000
     20 C           4.1708   -0.2357   -0.6692 C.ar    1  UNL1        0.0000
     21 SI          2.6918    0.3503   -1.6285 Si      1  UNL1        0.0000
     22 H          -6.0389   -1.7743    0.5803 H       1  UNL1        0.0000
     23 H          -5.8745   -0.9202    2.1438 H       1  UNL1        0.0000
     24 H          -6.5207    0.8507    0.2214 H       1  UNL1        0.0000
     25 H          -4.7295    2.6592   -0.9510 H       1  UNL1        0.0000
     26 H          -2.3220    3.0649   -1.4246 H       1  UNL1        0.0000
     27 H           0.1026    2.0177   -1.0566 H       1  UNL1        0.0000
     28 H          -0.6813   -1.6094    0.9686 H       1  UNL1        0.0000
     29 H          -3.5444   -2.1414    1.5427 H       1  UNL1        0.0000
     30 H           1.9308   -0.8949    1.8319 H       1  UNL1        0.0000
     31 H           6.5595   -1.6068    1.9498 H       1  UNL1        0.0000
     32 H           7.4594   -0.8763   -0.2577 H       1  UNL1        0.0000
     33 H           5.8798    0.0223   -1.9725 H       1  UNL1        0.0000
     34 H           2.3959   -0.4956   -2.8128 H       1  UNL1        0.0000
     35 H           2.7055    1.8107   -1.9114 H       1  UNL1        0.0000
@<TRIPOS>BOND
     1     1     2    1
     2     2     3    2
     3     3     4   ar
     4     4     5   ar
     5     5     6   ar
     6     6     7   ar
     7     7     8   ar
     8     8     9   ar
     9     9    10   ar
    10    10    11   ar
    11    11    12    2
    12     8    13    1
    13    13    14    2
    14    14    15    1
    15    15    16   ar
    16    16    17   ar
    17    17    18   ar
    18    18    19   ar
    19    19    20   ar
    20    20    21    1
    21    12     1    1
    22    21    13    1
    23    11     3   ar
    24    20    15   ar
    25    10     6   ar
    26     1    22    1
    27     1    23    1
    28     2    24    1
    29     4    25    1
    30     5    26    1
    31     7    27    1
    32     9    28    1
    33    12    29    1
    34    14    30    1
    35    17    31    1
    36    18    32    1
    37    19    33    1
    38    21    34    1
    39    21    35    1
