@<TRIPOS>MOLECULE
*****
 39 45 0 0 0
SMALL
GASTEIGER

@<TRIPOS>ATOM
      1 C           4.9253    0.4528    1.1633 C.3     1  UNL1       -0.0148
      2 C           5.2433   -0.2972   -0.0960 C.2     1  UNL1       -0.0725
      3 C           4.0996   -0.6239   -0.7133 C.ar    1  UNL1       -0.0212
      4 C           3.9274   -1.4652   -1.8771 C.ar    1  UNL1       -0.0532
      5 C           2.6804   -1.8141   -2.2503 C.ar    1  UNL1       -0.0468
      6 C           1.5719   -1.2739   -1.5128 C.ar    1  UNL1        0.0211
      7 S          -0.0270   -1.7445   -1.8462 S.2     1  UNL1       -0.0876
      8 C          -0.7269   -0.6547   -0.6873 C.ar    1  UNL1        0.0294
      9 C           0.3317    0.0838   -0.1370 C.ar    1  UNL1        0.0072
     10 C           1.6376   -0.3638   -0.4585 C.ar    1  UNL1        0.0050
     11 C           2.9560   -0.0790    0.0326 C.ar    1  UNL1       -0.0130
     12 C           3.4229    0.4847    1.1557 C.2     1  UNL1       -0.0719
     13 C          -0.0497    1.2061    0.6770 C.ar    1  UNL1        0.0088
     14 C           0.6933    2.2481    1.1520 C.ar    1  UNL1        0.0100
     15 N          -0.1852    3.0501    1.8451 N.ar    1  UNL1       -0.3659
     16 C          -1.4643    2.5434    1.7414 C.ar    1  UNL1        0.0100
     17 C          -1.4103    1.3959    0.9747 C.ar    1  UNL1        0.0078
     18 C          -2.5171    0.6303    0.5654 C.ar    1  UNL1       -0.0070
     19 C          -3.8825    0.9109    0.9582 C.ar    1  UNL1       -0.0528
     20 C          -4.9865    0.1674    0.5174 C.ar    1  UNL1       -0.0529
     21 C          -4.6089   -0.8650   -0.3355 C.ar    1  UNL1       -0.0102
     22 C          -5.5554   -1.7078   -0.8654 C.ar    1  UNL1       -0.0166
     23 S          -4.8384   -2.8986   -1.8600 S.2     1  UNL1       -0.1039
     24 C          -3.2585   -2.2804   -1.5730 C.ar    1  UNL1       -0.0160
     25 C          -3.2470   -1.1742   -0.7516 C.ar    1  UNL1       -0.0021
     26 C          -2.1065   -0.4394   -0.3263 C.ar    1  UNL1        0.0053
     27 H           5.3430    1.4635    1.1419 H       1  UNL1        0.0350
     28 H           5.2995   -0.0828    2.0409 H       1  UNL1        0.0350
     29 H           6.2379   -0.5839   -0.4009 H       1  UNL1        0.0581
     30 H           4.7993   -1.8403   -2.4001 H       1  UNL1        0.0624
     31 H           2.5115   -2.4713   -3.0969 H       1  UNL1        0.0629
     32 H           2.8386    0.8672    1.9755 H       1  UNL1        0.0581
     33 H           1.7265    2.5404    1.0488 H       1  UNL1        0.0813
     34 H           0.0616    3.9101    2.3178 H       1  UNL1        0.1648
     35 H          -2.2856    3.0767    2.1992 H       1  UNL1        0.0813
     36 H          -4.0795    1.7436    1.6314 H       1  UNL1        0.0624
     37 H          -6.0004    0.3909    0.8218 H       1  UNL1        0.0624
     38 H          -6.6273   -1.6979   -0.7232 H       1  UNL1        0.0699
     39 H          -2.4502   -2.8082   -2.0486 H       1  UNL1        0.0700
@<TRIPOS>BOND
     1     1     2    1
     2     2     3    2
     3     3     4   ar
     4     4     5   ar
     5     5     6   ar
     6     6     7   ar
     7     7     8   ar
     8     8     9   ar
     9     9    10   ar
    10    10    11   ar
    11    11    12    2
    12     9    13   ar
    13    13    14   ar
    14    14    15   ar
    15    15    16   ar
    16    16    17   ar
    17    17    18   ar
    18    18    19   ar
    19    19    20   ar
    20    20    21   ar
    21    21    22   ar
    22    22    23   ar
    23    23    24   ar
    24    24    25   ar
    25    25    26   ar
    26    12     1    1
    27    17    13   ar
    28    26    18   ar
    29    11     3   ar
    30    25    21   ar
    31    10     6   ar
    32    26     8   ar
    33     1    27    1
    34     1    28    1
    35     2    29    1
    36     4    30    1
    37     5    31    1
    38    12    32    1
    39    14    33    1
    40    15    34    1
    41    16    35    1
    42    19    36    1
    43    20    37    1
    44    22    38    1
    45    24    39    1
