@<TRIPOS>MOLECULE
*****
 36 41 0 0 0
SMALL
GASTEIGER

@<TRIPOS>ATOM
      1 C           5.3890    0.9213   -0.2746 C.3     1  UNL1        0.0000
      2 C           5.4424   -0.5653   -0.0781 C.2     1  UNL1        0.0000
      3 C           4.1943   -1.0450    0.0068 C.ar    1  UNL1        0.0000
      4 C           3.7729   -2.4160    0.1960 C.ar    1  UNL1        0.0000
      5 C           2.4553   -2.6944    0.2554 C.ar    1  UNL1        0.0000
      6 C           1.5241   -1.6092    0.1271 C.ar    1  UNL1        0.0000
      7 S          -0.1472   -1.8528    0.1879 S.2     1  UNL1        0.0000
      8 C          -0.5287   -0.1771   -0.0283 C.ar    1  UNL1        0.0000
      9 C           0.6634    0.5731   -0.1482 C.ar    1  UNL1        0.0000
     10 C           0.5498    1.9611   -0.3306 C.ar    1  UNL1        0.0000
     11 N          -0.6413    2.5840   -0.3934 N.ar    1  UNL1        0.0000
     12 C          -1.7637    1.8519   -0.2771 C.ar    1  UNL1        0.0000
     13 C          -3.0013    2.6503   -0.3625 C.ar    1  UNL1        0.0000
     14 C          -4.2171    2.0911   -0.2678 C.ar    1  UNL1        0.0000
     15 C          -4.3361    0.6637   -0.0759 C.ar    1  UNL1        0.0000
     16 C          -5.5196    0.0308    0.0282 C.2     1  UNL1        0.0000
     17 SI         -5.2851   -1.7985    0.2678 Si      1  UNL1        0.0000
     18 C          -3.4341   -1.5055    0.1978 C.2     1  UNL1        0.0000
     19 C          -3.1267   -0.2027    0.0191 C.ar    1  UNL1        0.0000
     20 C          -1.7946    0.4562   -0.0910 C.ar    1  UNL1        0.0000
     21 C           1.8327   -0.2676   -0.0563 C.ar    1  UNL1        0.0000
     22 C           3.2311    0.0564   -0.1231 C.ar    1  UNL1        0.0000
     23 C           3.9102    1.2005   -0.2866 C.2     1  UNL1        0.0000
     24 H           5.8807    1.4456    0.5500 H       1  UNL1        0.0000
     25 H           5.8506    1.2102   -1.2234 H       1  UNL1        0.0000
     26 H           6.3533   -1.1406   -0.0173 H       1  UNL1        0.0000
     27 H           4.5196   -3.1963    0.2870 H       1  UNL1        0.0000
     28 H           2.1030   -3.7110    0.3964 H       1  UNL1        0.0000
     29 H           1.4048    2.6164   -0.4322 H       1  UNL1        0.0000
     30 H          -2.8821    3.7183   -0.5066 H       1  UNL1        0.0000
     31 H          -5.1136    2.6981   -0.3335 H       1  UNL1        0.0000
     32 H          -6.5025    0.4726   -0.0140 H       1  UNL1        0.0000
     33 H          -5.7325   -2.2616    1.6034 H       1  UNL1        0.0000
     34 H          -5.7742   -2.5929   -0.8846 H       1  UNL1        0.0000
     35 H          -2.7883   -2.3571    0.3004 H       1  UNL1        0.0000
     36 H           3.5115    2.1919   -0.4114 H       1  UNL1        0.0000
@<TRIPOS>BOND
     1     1     2    1
     2     2     3    2
     3     3     4   ar
     4     4     5   ar
     5     5     6   ar
     6     6     7   ar
     7     7     8   ar
     8     8     9   ar
     9     9    10   ar
    10    10    11   ar
    11    11    12   ar
    12    12    13   ar
    13    13    14   ar
    14    14    15   ar
    15    15    16    2
    16    16    17    1
    17    17    18    1
    18    18    19    2
    19    19    20   ar
    20     9    21   ar
    21    21    22   ar
    22    22    23    2
    23    23     1    1
    24    22     3   ar
    25    21     6   ar
    26    20     8   ar
    27    20    12   ar
    28    19    15   ar
    29     1    24    1
    30     1    25    1
    31     2    26    1
    32     4    27    1
    33     5    28    1
    34    10    29    1
    35    13    30    1
    36    14    31    1
    37    16    32    1
    38    17    33    1
    39    17    34    1
    40    18    35    1
    41    23    36    1
