@<TRIPOS>MOLECULE
*****
 36 41 0 0 0
SMALL
GASTEIGER

@<TRIPOS>ATOM
      1 C          -5.7004    2.5962    0.2544 C.ar    1  UNL1        0.0932
      2 C          -6.1645    1.2974    0.2806 C.ar    1  UNL1       -0.0161
      3 C          -5.0206    0.4624    0.2283 C.ar    1  UNL1        0.0222
      4 C          -4.7475   -0.9229    0.2195 C.ar    1  UNL1       -0.0503
      5 C          -3.4125   -1.4313    0.1570 C.ar    1  UNL1       -0.0511
      6 C          -2.2829   -0.5835    0.1000 C.ar    1  UNL1        0.0132
      7 C          -2.5118    0.7795    0.1069 C.ar    1  UNL1        0.0910
      8 N          -1.3366    1.4702    0.0490 N.ar    1  UNL1       -0.3512
      9 C          -0.2859    0.5722   -0.0005 C.ar    1  UNL1        0.0503
     10 C           1.1027    0.7762   -0.0685 C.ar    1  UNL1       -0.0279
     11 C           1.9890   -0.3309   -0.1033 C.ar    1  UNL1        0.0123
     12 C           3.4449   -0.1554   -0.1764 C.ar    1  UNL1       -0.0157
     13 C           4.3033   -0.7521    0.7618 C.ar    1  UNL1       -0.0540
     14 C           5.6869   -0.5651    0.6968 C.ar    1  UNL1       -0.0612
     15 C           6.2377    0.2253   -0.3082 C.ar    1  UNL1       -0.0617
     16 C           5.4064    0.8277   -1.2484 C.ar    1  UNL1       -0.0612
     17 C           4.0229    0.6396   -1.1816 C.ar    1  UNL1       -0.0540
     18 C           1.3860   -1.6262   -0.0693 C.ar    1  UNL1        0.1083
     19 N           2.0161   -2.8223   -0.1007 N.ar    1  UNL1       -0.1901
     20 S           0.8407   -4.0083   -0.0455 S.2     1  UNL1        0.1165
     21 N          -0.5427   -3.0702    0.0252 N.ar    1  UNL1       -0.1901
     22 C          -0.0559   -1.8386   -0.0008 C.ar    1  UNL1        0.1102
     23 C          -0.8855   -0.6767    0.0336 C.ar    1  UNL1        0.0357
     24 C          -3.9447    1.3290    0.1740 C.ar    1  UNL1        0.1585
     25 O          -4.3404    2.6231    0.1891 O.2     1  UNL1       -0.4608
     26 H          -6.1838    3.5631    0.2748 H       1  UNL1        0.1030
     27 H          -7.2000    0.9935    0.3313 H       1  UNL1        0.0655
     28 H          -5.5716   -1.6324    0.2612 H       1  UNL1        0.0625
     29 H          -3.2678   -2.5108    0.1535 H       1  UNL1        0.0624
     30 H          -1.2565    2.4781    0.0437 H       1  UNL1        0.1660
     31 H           1.5036    1.7882   -0.0814 H       1  UNL1        0.0645
     32 H           3.8972   -1.3740    1.5575 H       1  UNL1        0.0624
     33 H           6.3318   -1.0408    1.4310 H       1  UNL1        0.0618
     34 H           7.3137    0.3679   -0.3605 H       1  UNL1        0.0618
     35 H           5.8331    1.4406   -2.0379 H       1  UNL1        0.0618
     36 H           3.3955    1.1114   -1.9351 H       1  UNL1        0.0624
@<TRIPOS>BOND
     1     1     2   ar
     2     2     3   ar
     3     3     4   ar
     4     4     5   ar
     5     5     6   ar
     6     6     7   ar
     7     7     8   ar
     8     8     9   ar
     9     9    10   ar
    10    10    11   ar
    11    11    12    1
    12    12    13   ar
    13    13    14   ar
    14    14    15   ar
    15    15    16   ar
    16    16    17   ar
    17    11    18   ar
    18    18    19   ar
    19    19    20   ar
    20    20    21   ar
    21    21    22   ar
    22    22    23   ar
    23     7    24   ar
    24    24    25   ar
    25    25     1   ar
    26    24     3   ar
    27    23     6   ar
    28    23     9   ar
    29    17    12   ar
    30    22    18   ar
    31     1    26    1
    32     2    27    1
    33     4    28    1
    34     5    29    1
    35     8    30    1
    36    10    31    1
    37    13    32    1
    38    14    33    1
    39    15    34    1
    40    16    35    1
    41    17    36    1
