@<TRIPOS>MOLECULE
*****
 30 34 0 0 0
SMALL
GASTEIGER

@<TRIPOS>ATOM
      1 C           4.9572    0.1957    0.0571 C.ar    1  UNL1        0.0932
      2 C           4.5883   -1.1270   -0.0103 C.ar    1  UNL1       -0.0161
      3 C           3.1698   -1.1476    0.0299 C.ar    1  UNL1        0.0207
      4 C           2.1829   -2.1367    0.0002 C.ar    1  UNL1       -0.0504
      5 C           0.8281   -1.7480    0.0628 C.ar    1  UNL1       -0.0526
      6 C           0.3857   -0.3994    0.1557 C.ar    1  UNL1       -0.0060
      7 C           1.4127    0.5780    0.1833 C.ar    1  UNL1        0.0256
      8 C           1.1422    1.9478    0.2720 C.ar    1  UNL1       -0.0499
      9 C          -0.1712    2.3949    0.3367 C.ar    1  UNL1       -0.0533
     10 C          -1.2524    1.5122    0.3163 C.ar    1  UNL1       -0.0167
     11 C          -2.5526    2.1148    0.3897 C.ar    1  UNL1       -0.0534
     12 C          -3.7701    1.4203    0.3845 C.ar    1  UNL1       -0.0529
     13 C          -3.5656    0.0538    0.2985 C.ar    1  UNL1       -0.0103
     14 C          -4.6396   -0.8026    0.2798 C.ar    1  UNL1       -0.0166
     15 S          -4.1299   -2.4284    0.1700 S.2     1  UNL1       -0.1039
     16 C          -2.4703   -1.9699    0.1484 C.ar    1  UNL1       -0.0160
     17 C          -2.2753   -0.6088    0.2219 C.ar    1  UNL1       -0.0026
     18 C          -0.9994    0.0836    0.2249 C.ar    1  UNL1       -0.0019
     19 C           2.7638    0.1756    0.1200 C.ar    1  UNL1        0.1425
     20 O           3.8615    0.9931    0.1363 O.2     1  UNL1       -0.4623
     21 H           5.9085    0.7092    0.0596 H       1  UNL1        0.1030
     22 H           5.2577   -1.9721   -0.0799 H       1  UNL1        0.0655
     23 H           2.4466   -3.1881   -0.0698 H       1  UNL1        0.0625
     24 H           0.1229   -2.5650    0.0347 H       1  UNL1        0.0624
     25 H           1.9508    2.6758    0.2913 H       1  UNL1        0.0625
     26 H          -0.3332    3.4700    0.4047 H       1  UNL1        0.0624
     27 H          -2.6212    3.2034    0.4557 H       1  UNL1        0.0624
     28 H          -4.7295    1.9167    0.4417 H       1  UNL1        0.0624
     29 H          -5.6945   -0.5682    0.3243 H       1  UNL1        0.0699
     30 H          -1.7738   -2.7830    0.0810 H       1  UNL1        0.0700
@<TRIPOS>BOND
     1     1     2   ar
     2     2     3   ar
     3     3     4   ar
     4     4     5   ar
     5     5     6   ar
     6     6     7   ar
     7     7     8   ar
     8     8     9   ar
     9     9    10   ar
    10    10    11   ar
    11    11    12   ar
    12    12    13   ar
    13    13    14   ar
    14    14    15   ar
    15    15    16   ar
    16    16    17   ar
    17    17    18   ar
    18     7    19   ar
    19    19    20   ar
    20    20     1   ar
    21    19     3   ar
    22    18     6   ar
    23    18    10   ar
    24    17    13   ar
    25     1    21    1
    26     2    22    1
    27     4    23    1
    28     5    24    1
    29     8    25    1
    30     9    26    1
    31    11    27    1
    32    12    28    1
    33    14    29    1
    34    16    30    1
