@<TRIPOS>MOLECULE
*****
 43 49 0 0 0
SMALL
GASTEIGER

@<TRIPOS>ATOM
      1 C          -3.7314   -2.1937    1.0807 C.3     1  UNL1       -0.0148
      2 C          -4.5339   -1.0359    0.5709 C.2     1  UNL1       -0.0725
      3 C          -3.7002   -0.0708    0.1594 C.ar    1  UNL1       -0.0212
      4 C          -4.0392    1.2657   -0.2459 C.ar    1  UNL1       -0.0537
      5 C          -3.0506    2.1638   -0.3929 C.ar    1  UNL1       -0.0528
      6 C          -1.6437    1.7631   -0.2184 C.ar    1  UNL1       -0.0075
      7 C          -0.5900    2.6713   -0.1805 C.ar    1  UNL1        0.0078
      8 C          -0.6723    4.0415   -0.2545 C.ar    1  UNL1        0.0100
      9 N           0.6076    4.5301   -0.1644 N.ar    1  UNL1       -0.3659
     10 C           1.5022    3.4887   -0.0343 C.ar    1  UNL1        0.0101
     11 C           0.7843    2.3129   -0.0111 C.ar    1  UNL1        0.0097
     12 C           1.2591    0.9849    0.0566 C.ar    1  UNL1        0.0163
     13 C           2.5931    0.6076    0.3031 C.ar    1  UNL1        0.0555
     14 N           3.6897    1.3368    0.7136 N.ar    1  UNL1       -0.3601
     15 C           4.7900    0.5385    0.8482 C.ar    1  UNL1        0.0028
     16 C           4.4086   -0.7398    0.5274 C.ar    1  UNL1       -0.0361
     17 C           3.0166   -0.7179    0.1989 C.ar    1  UNL1        0.0080
     18 C           2.0850   -1.6935   -0.2394 C.ar    1  UNL1       -0.0081
     19 C           2.5553   -3.0049   -0.4861 C.ar    1  UNL1       -0.0534
     20 C           1.7157   -3.9728   -1.0251 C.ar    1  UNL1       -0.0611
     21 C           0.4130   -3.6339   -1.3488 C.ar    1  UNL1       -0.0611
     22 C          -0.0592   -2.3423   -1.0859 C.ar    1  UNL1       -0.0534
     23 C           0.7242   -1.3397   -0.4603 C.ar    1  UNL1       -0.0089
     24 C           0.2397   -0.0142   -0.1503 C.ar    1  UNL1        0.0007
     25 C          -1.1831    0.4005   -0.0824 C.ar    1  UNL1       -0.0015
     26 C          -2.3111   -0.5163    0.2803 C.ar    1  UNL1       -0.0135
     27 C          -2.3215   -1.7149    0.8921 C.2     1  UNL1       -0.0719
     28 H          -3.9238   -3.1002    0.4998 H       1  UNL1        0.0350
     29 H          -3.9426   -2.3802    2.1378 H       1  UNL1        0.0350
     30 H          -5.6097   -0.9712    0.6199 H       1  UNL1        0.0581
     31 H          -5.0792    1.5422   -0.3733 H       1  UNL1        0.0624
     32 H          -3.2771    3.1868   -0.6662 H       1  UNL1        0.0624
     33 H          -1.5072    4.7192   -0.3649 H       1  UNL1        0.0813
     34 H           0.8591    5.5092   -0.2117 H       1  UNL1        0.1648
     35 H           2.5552    3.7173   -0.0120 H       1  UNL1        0.0813
     36 H           3.6693    2.3170    0.9455 H       1  UNL1        0.1654
     37 H           5.7410    0.9454    1.1638 H       1  UNL1        0.0807
     38 H           5.0602   -1.6031    0.5328 H       1  UNL1        0.0639
     39 H           3.5891   -3.2739   -0.2870 H       1  UNL1        0.0624
     40 H           2.0897   -4.9727   -1.2248 H       1  UNL1        0.0618
     41 H          -0.2421   -4.3631   -1.8180 H       1  UNL1        0.0618
     42 H          -1.0692   -2.1150   -1.4210 H       1  UNL1        0.0624
     43 H          -1.4608   -2.2726    1.2284 H       1  UNL1        0.0581
@<TRIPOS>BOND
     1     1     2    1
     2     2     3    2
     3     3     4   ar
     4     4     5   ar
     5     5     6   ar
     6     6     7   ar
     7     7     8   ar
     8     8     9   ar
     9     9    10   ar
    10    10    11   ar
    11    11    12   ar
    12    12    13   ar
    13    13    14   ar
    14    14    15   ar
    15    15    16   ar
    16    16    17   ar
    17    17    18   ar
    18    18    19   ar
    19    19    20   ar
    20    20    21   ar
    21    21    22   ar
    22    22    23   ar
    23    23    24   ar
    24    24    25   ar
    25    25    26   ar
    26    26    27    2
    27    27     1    1
    28    26     3   ar
    29    25     6   ar
    30    11     7   ar
    31    24    12   ar
    32    17    13   ar
    33    23    18   ar
    34     1    28    1
    35     1    29    1
    36     2    30    1
    37     4    31    1
    38     5    32    1
    39     8    33    1
    40     9    34    1
    41    10    35    1
    42    14    36    1
    43    15    37    1
    44    16    38    1
    45    19    39    1
    46    20    40    1
    47    21    41    1
    48    22    42    1
    49    27    43    1
