@<TRIPOS>MOLECULE
*****
 41 47 0 0 0
SMALL
GASTEIGER

@<TRIPOS>ATOM
      1 SI         -1.8309   -3.1559    2.7471 Si      1  UNL1        0.0000
      2 C          -0.3956   -2.3356    1.9012 C.2     1  UNL1        0.0000
      3 C          -0.7560   -1.2066    1.2515 C.ar    1  UNL1        0.0000
      4 C           0.1746   -0.3580    0.4591 C.ar    1  UNL1        0.0000
      5 C           1.5606   -0.6825    0.3781 C.ar    1  UNL1        0.0000
      6 C           2.5367    0.0340   -0.3561 C.ar    1  UNL1        0.0000
      7 C           3.9492   -0.3689   -0.3788 C.ar    1  UNL1        0.0000
      8 C           4.7846   -0.2263   -1.4862 C.ar    1  UNL1        0.0000
      9 C           6.1088   -0.6568   -1.4089 C.ar    1  UNL1        0.0000
     10 C           6.5731   -1.2256   -0.2319 C.ar    1  UNL1        0.0000
     11 C           5.6862   -1.3477    0.8206 C.ar    1  UNL1        0.0000
     12 N           4.3964   -0.9458    0.7695 N.ar    1  UNL1        0.0000
     13 C           2.0320    1.1759   -1.0332 C.ar    1  UNL1        0.0000
     14 N           2.7518    2.0399   -1.7742 N.ar    1  UNL1        0.0000
     15 S           1.7172    3.1951   -2.3319 S.2     1  UNL1        0.0000
     16 N           0.3050    2.6644   -1.6811 N.ar    1  UNL1        0.0000
     17 C           0.5534    1.5528   -0.9628 C.ar    1  UNL1        0.0000
     18 C          -0.3865    0.7710   -0.2055 C.ar    1  UNL1        0.0000
     19 C          -1.8287    1.1130   -0.0975 C.ar    1  UNL1        0.0000
     20 N          -2.2251    2.2078   -0.7792 N.ar    1  UNL1        0.0000
     21 C          -3.4965    2.6355   -0.7278 C.ar    1  UNL1        0.0000
     22 C          -4.4533    1.9743    0.0434 C.ar    1  UNL1        0.0000
     23 C          -5.8407    2.3019    0.2295 C.ar    1  UNL1        0.0000
     24 C          -6.4827    1.4342    1.0715 C.ar    1  UNL1        0.0000
     25 S          -5.4362    0.2272    1.6353 S.2     1  UNL1        0.0000
     26 C          -4.0624    0.8248    0.7536 C.ar    1  UNL1        0.0000
     27 C          -2.7228    0.3471    0.6811 C.ar    1  UNL1        0.0000
     28 C          -2.2041   -0.8694    1.3604 C.ar    1  UNL1        0.0000
     29 C          -2.8966   -1.7796    2.0800 C.2     1  UNL1        0.0000
     30 H          -1.7193   -3.1248    4.2249 H       1  UNL1        0.0000
     31 H          -2.1662   -4.4713    2.1512 H       1  UNL1        0.0000
     32 H           0.5756   -2.7960    1.9701 H       1  UNL1        0.0000
     33 H           1.9299   -1.5540    0.9201 H       1  UNL1        0.0000
     34 H           4.4227    0.2039   -2.4146 H       1  UNL1        0.0000
     35 H           6.7690   -0.5441   -2.2640 H       1  UNL1        0.0000
     36 H           7.5978   -1.5661   -0.1384 H       1  UNL1        0.0000
     37 H           5.9951   -1.7890    1.7639 H       1  UNL1        0.0000
     38 H          -3.7208    3.5238   -1.3090 H       1  UNL1        0.0000
     39 H          -6.3333    3.1473   -0.2360 H       1  UNL1        0.0000
     40 H          -7.5184    1.4558    1.3825 H       1  UNL1        0.0000
     41 H          -3.9433   -1.8256    2.3101 H       1  UNL1        0.0000
@<TRIPOS>BOND
     1     1     2    1
     2     2     3    2
     3     3     4   ar
     4     4     5   ar
     5     5     6   ar
     6     6     7    1
     7     7     8   ar
     8     8     9   ar
     9     9    10   ar
    10    10    11   ar
    11    11    12   ar
    12     6    13   ar
    13    13    14   ar
    14    14    15   ar
    15    15    16   ar
    16    16    17   ar
    17    17    18   ar
    18    18    19   ar
    19    19    20   ar
    20    20    21   ar
    21    21    22   ar
    22    22    23   ar
    23    23    24   ar
    24    24    25   ar
    25    25    26   ar
    26    26    27   ar
    27    27    28   ar
    28    28    29    2
    29    29     1    1
    30    28     3   ar
    31    18     4   ar
    32    27    19   ar
    33    12     7   ar
    34    17    13   ar
    35    26    22   ar
    36     1    30    1
    37     1    31    1
    38     2    32    1
    39     5    33    1
    40     8    34    1
    41     9    35    1
    42    10    36    1
    43    11    37    1
    44    21    38    1
    45    23    39    1
    46    24    40    1
    47    29    41    1
