@<TRIPOS>MOLECULE
*****
 42 48 0 0 0
SMALL
GASTEIGER

@<TRIPOS>ATOM
      1 C           7.1914    0.0442   -1.5897 C.ar    1  UNL1       -0.0232
      2 C           6.9335    0.4315   -0.3004 C.ar    1  UNL1       -0.0470
      3 C           5.5362    0.3830    0.0273 C.ar    1  UNL1       -0.0101
      4 C           4.8963    0.7027    1.2381 C.ar    1  UNL1       -0.0529
      5 C           3.5074    0.5909    1.3669 C.ar    1  UNL1       -0.0528
      6 C           2.6700    0.1618    0.3231 C.ar    1  UNL1       -0.0069
      7 C           1.2235    0.0568    0.4938 C.ar    1  UNL1       -0.0079
      8 C           0.5415    0.3686    1.6967 C.ar    1  UNL1       -0.0528
      9 C          -0.8528    0.2619    1.8401 C.ar    1  UNL1       -0.0534
     10 C          -1.6623   -0.1614    0.7856 C.ar    1  UNL1       -0.0166
     11 C          -1.0299   -0.4864   -0.4157 C.ar    1  UNL1       -0.0441
     12 C           0.3762   -0.3776   -0.5632 C.ar    1  UNL1        0.0115
     13 C           0.9956   -0.7093   -1.8073 C.ar    1  UNL1        0.1082
     14 N           0.3580   -1.1332   -2.9157 N.ar    1  UNL1       -0.1901
     15 S           1.5099   -1.3823   -4.0707 S.2     1  UNL1        0.1165
     16 N           2.8626   -0.9607   -3.2292 N.ar    1  UNL1       -0.1901
     17 C           2.4870   -0.6026   -1.9869 C.ar    1  UNL1        0.1092
     18 C           3.3271   -0.1646   -0.9147 C.ar    1  UNL1        0.0252
     19 C           4.7469   -0.0502   -1.0461 C.ar    1  UNL1        0.0291
     20 S           5.7694   -0.3783   -2.4142 S.2     1  UNL1       -0.0960
     21 C          -3.1058   -0.2770    0.9465 C.ar    1  UNL1       -0.0087
     22 C          -3.7456   -1.0725    1.9384 C.ar    1  UNL1       -0.0534
     23 C          -5.1725   -1.1919    2.0991 C.ar    1  UNL1       -0.0605
     24 C          -6.1202   -0.5266    1.2905 C.ar    1  UNL1       -0.0526
     25 C          -5.4812    0.2495    0.3339 C.ar    1  UNL1       -0.0000
     26 C          -6.1015    1.0333   -0.6041 C.ar    1  UNL1        0.0094
     27 N          -5.1052    1.6402   -1.3388 N.ar    1  UNL1       -0.3659
     28 C          -3.8647    1.2541   -0.8744 C.ar    1  UNL1        0.0100
     29 C          -4.0681    0.3741    0.1620 C.ar    1  UNL1        0.0071
     30 H           8.1500   -0.0105   -2.0871 H       1  UNL1        0.0694
     31 H           7.7096    0.7394    0.3895 H       1  UNL1        0.0629
     32 H           5.4846    1.0418    2.0884 H       1  UNL1        0.0624
     33 H           3.1059    0.8604    2.3402 H       1  UNL1        0.0624
     34 H           1.0793    0.7127    2.5759 H       1  UNL1        0.0624
     35 H          -1.3025    0.5295    2.7954 H       1  UNL1        0.0624
     36 H          -1.6326   -0.8370   -1.2539 H       1  UNL1        0.0630
     37 H          -3.1195   -1.6471    2.6229 H       1  UNL1        0.0624
     38 H          -5.5403   -1.8400    2.8953 H       1  UNL1        0.0618
     39 H          -7.1885   -0.6208    1.4188 H       1  UNL1        0.0624
     40 H          -7.1433    1.2245   -0.8215 H       1  UNL1        0.0813
     41 H          -5.2599    2.2827   -2.1047 H       1  UNL1        0.1648
     42 H          -2.9656    1.6461   -1.3303 H       1  UNL1        0.0813
@<TRIPOS>BOND
     1     1     2   ar
     2     2     3   ar
     3     3     4   ar
     4     4     5   ar
     5     5     6   ar
     6     6     7   ar
     7     7     8   ar
     8     8     9   ar
     9     9    10   ar
    10    10    11   ar
    11    11    12   ar
    12    12    13   ar
    13    13    14   ar
    14    14    15   ar
    15    15    16   ar
    16    16    17   ar
    17    17    18   ar
    18    18    19   ar
    19    19    20   ar
    20    10    21    1
    21    21    22   ar
    22    22    23   ar
    23    23    24   ar
    24    24    25   ar
    25    25    26   ar
    26    26    27   ar
    27    27    28   ar
    28    28    29   ar
    29    20     1   ar
    30    29    21   ar
    31    19     3   ar
    32    29    25   ar
    33    18     6   ar
    34    12     7   ar
    35    17    13   ar
    36     1    30    1
    37     2    31    1
    38     4    32    1
    39     5    33    1
    40     8    34    1
    41     9    35    1
    42    11    36    1
    43    22    37    1
    44    23    38    1
    45    24    39    1
    46    26    40    1
    47    27    41    1
    48    28    42    1
