@<TRIPOS>MOLECULE
*****
 37 42 0 0 0
SMALL
GASTEIGER

@<TRIPOS>ATOM
      1 C           3.7341   -2.6481    0.2199 C.3     1  UNL1       -0.0148
      2 C           4.3965   -1.3372   -0.0626 C.2     1  UNL1       -0.0725
      3 C           3.4570   -0.3895   -0.1688 C.ar    1  UNL1       -0.0212
      4 C           3.6289    1.0067   -0.4329 C.ar    1  UNL1       -0.0537
      5 C           2.5245    1.7689   -0.4942 C.ar    1  UNL1       -0.0529
      6 C           1.1493    1.2443   -0.3044 C.ar    1  UNL1       -0.0096
      7 C          -0.0196    2.1388   -0.3852 C.ar    1  UNL1       -0.0134
      8 C          -0.0859    3.4611   -0.6196 C.2     1  UNL1       -0.0719
      9 C          -1.5182    3.9134   -0.6022 C.3     1  UNL1       -0.0148
     10 C          -2.2578    2.6394   -0.3207 C.2     1  UNL1       -0.0719
     11 C          -1.3767    1.6365   -0.2005 C.ar    1  UNL1       -0.0118
     12 C          -1.5686    0.2473    0.0639 C.ar    1  UNL1        0.0101
     13 C          -0.4739   -0.5750    0.1366 C.ar    1  UNL1       -0.0250
     14 C          -0.8953   -2.0409    0.4306 C.3     1  UNL1        0.0008
     15 C          -2.3688   -1.8886    0.5052 C.ar    1  UNL1       -0.0178
     16 C          -3.5645   -2.5796    0.7130 C.ar    1  UNL1       -0.0403
     17 C          -4.5742   -1.6279    0.6111 C.ar    1  UNL1        0.0024
     18 N          -4.0083   -0.3889    0.3480 N.ar    1  UNL1       -0.3604
     19 C          -2.6756   -0.5783    0.2898 C.ar    1  UNL1        0.0509
     20 C           0.9224   -0.0994   -0.0460 C.ar    1  UNL1       -0.0058
     21 C           2.1232   -0.9577    0.0260 C.ar    1  UNL1       -0.0138
     22 C           2.2778   -2.2744    0.2530 C.2     1  UNL1       -0.0720
     23 H           4.0572   -3.0556    1.1823 H       1  UNL1        0.0350
     24 H           3.9358   -3.3728   -0.5744 H       1  UNL1        0.0350
     25 H           5.4614   -1.1959   -0.1618 H       1  UNL1        0.0581
     26 H           4.6200    1.4194   -0.5759 H       1  UNL1        0.0624
     27 H           2.6362    2.8293   -0.6934 H       1  UNL1        0.0624
     28 H           0.7423    4.1281   -0.7975 H       1  UNL1        0.0581
     29 H          -1.6884    4.6510    0.1875 H       1  UNL1        0.0350
     30 H          -1.8100    4.3334   -1.5692 H       1  UNL1        0.0350
     31 H          -3.3291    2.5686   -0.2338 H       1  UNL1        0.0581
     32 H          -0.6150   -2.7074   -0.3900 H       1  UNL1        0.0362
     33 H          -0.4918   -2.3864    1.3867 H       1  UNL1        0.0362
     34 H          -3.7036   -3.6335    0.9131 H       1  UNL1        0.0635
     35 H          -5.6479   -1.7218    0.7026 H       1  UNL1        0.0807
     36 H          -4.5085    0.4812    0.2256 H       1  UNL1        0.1653
     37 H           1.5149   -3.0088    0.4384 H       1  UNL1        0.0581
@<TRIPOS>BOND
     1     1     2    1
     2     2     3    2
     3     3     4   ar
     4     4     5   ar
     5     5     6   ar
     6     6     7   ar
     7     7     8    2
     8     8     9    1
     9     9    10    1
    10    10    11    2
    11    11    12   ar
    12    12    13   ar
    13    13    14    1
    14    14    15    1
    15    15    16   ar
    16    16    17   ar
    17    17    18   ar
    18    18    19   ar
    19    13    20   ar
    20    20    21   ar
    21    21    22    2
    22    22     1    1
    23    21     3   ar
    24    20     6   ar
    25    11     7   ar
    26    12    19    1
    27    19    15   ar
    28     1    23    1
    29     1    24    1
    30     2    25    1
    31     4    26    1
    32     5    27    1
    33     8    28    1
    34     9    29    1
    35     9    30    1
    36    10    31    1
    37    14    32    1
    38    14    33    1
    39    16    34    1
    40    17    35    1
    41    18    36    1
    42    22    37    1
