@<TRIPOS>MOLECULE
*****
 37 42 0 0 0
SMALL
GASTEIGER

@<TRIPOS>ATOM
      1 C          -4.2946    2.3549    0.5657 C.3     1  UNL1       -0.0148
      2 C          -4.7384    0.9390    0.4012 C.2     1  UNL1       -0.0725
      3 C          -3.6600    0.1550    0.2734 C.ar    1  UNL1       -0.0212
      4 C          -3.6397   -1.2630    0.0958 C.ar    1  UNL1       -0.0537
      5 C          -2.4586   -1.8903   -0.0151 C.ar    1  UNL1       -0.0528
      6 C          -1.1350   -1.1818    0.0367 C.ar    1  UNL1       -0.0085
      7 C           0.0771   -1.9171   -0.0886 C.ar    1  UNL1       -0.0095
      8 C           0.1520   -3.3280   -0.2668 C.ar    1  UNL1       -0.0534
      9 C           1.3625   -4.0148   -0.3860 C.ar    1  UNL1       -0.0611
     10 C           2.5525   -3.3162   -0.3317 C.ar    1  UNL1       -0.0611
     11 C           2.5262   -1.9348   -0.1586 C.ar    1  UNL1       -0.0534
     12 C           1.3095   -1.2167   -0.0353 C.ar    1  UNL1       -0.0088
     13 C           1.3549    0.2086    0.1412 C.ar    1  UNL1        0.0016
     14 C           2.4563    1.1244    0.2250 C.ar    1  UNL1       -0.0211
     15 C           3.9489    1.0788    0.1778 C.3     1  UNL1       -0.0075
     16 C           4.2852    2.5627    0.3536 C.2     1  UNL1       -0.0786
     17 C           3.1713    3.3159    0.4784 C.2     1  UNL1       -0.0513
     18 C           2.0828    2.4262    0.3977 C.ar    1  UNL1        0.0166
     19 S           0.4449    2.6372    0.4696 S.2     1  UNL1       -0.0879
     20 C           0.1328    0.9193    0.2638 C.ar    1  UNL1        0.0290
     21 C          -1.1189    0.2451    0.2144 C.ar    1  UNL1        0.0044
     22 C          -2.4305    0.9439    0.3379 C.ar    1  UNL1       -0.0130
     23 C          -2.7992    2.2280    0.5085 C.2     1  UNL1       -0.0719
     24 H          -4.6676    2.9846   -0.2473 H       1  UNL1        0.0350
     25 H          -4.6186    2.7630    1.5275 H       1  UNL1        0.0350
     26 H          -5.7680    0.6173    0.3895 H       1  UNL1        0.0581
     27 H          -4.5745   -1.8106    0.0534 H       1  UNL1        0.0624
     28 H          -2.4826   -2.9628   -0.1483 H       1  UNL1        0.0624
     29 H          -0.7434   -3.9394   -0.3182 H       1  UNL1        0.0624
     30 H           1.3654   -5.0932   -0.5206 H       1  UNL1        0.0618
     31 H           3.5008   -3.8385   -0.4231 H       1  UNL1        0.0618
     32 H           3.4849   -1.4316   -0.1223 H       1  UNL1        0.0624
     33 H           4.3677    0.4934    1.0012 H       1  UNL1        0.0356
     34 H           4.3181    0.7164   -0.7857 H       1  UNL1        0.0356
     35 H           5.2960    2.9429    0.3731 H       1  UNL1        0.0576
     36 H           3.1119    4.3854    0.6134 H       1  UNL1        0.0626
     37 H          -2.1722    3.0966    0.5997 H       1  UNL1        0.0581
@<TRIPOS>BOND
     1     1     2    1
     2     2     3    2
     3     3     4   ar
     4     4     5   ar
     5     5     6   ar
     6     6     7   ar
     7     7     8   ar
     8     8     9   ar
     9     9    10   ar
    10    10    11   ar
    11    11    12   ar
    12    12    13   ar
    13    13    14   ar
    14    14    15    1
    15    15    16    1
    16    16    17    2
    17    17    18    1
    18    18    19   ar
    19    19    20   ar
    20    20    21   ar
    21    21    22   ar
    22    22    23    2
    23    23     1    1
    24    22     3   ar
    25    21     6   ar
    26    12     7   ar
    27    20    13   ar
    28    18    14   ar
    29     1    24    1
    30     1    25    1
    31     2    26    1
    32     4    27    1
    33     5    28    1
    34     8    29    1
    35     9    30    1
    36    10    31    1
    37    11    32    1
    38    15    33    1
    39    15    34    1
    40    16    35    1
    41    17    36    1
    42    23    37    1
