@<TRIPOS>MOLECULE
*****
 41 47 0 0 0
SMALL
GASTEIGER

@<TRIPOS>ATOM
      1 C          -3.4964   -2.2268    2.5678 C.3     1  UNL1       -0.0148
      2 C          -4.3809   -1.1919    1.9447 C.2     1  UNL1       -0.0725
      3 C          -3.6449   -0.4259    1.1292 C.ar    1  UNL1       -0.0212
      4 C          -4.0419    0.7525    0.4261 C.ar    1  UNL1       -0.0537
      5 C          -3.0858    1.4988   -0.1509 C.ar    1  UNL1       -0.0528
      6 C          -1.6241    1.1325   -0.1331 C.ar    1  UNL1       -0.0089
      7 C          -0.6312    2.0453   -0.5691 C.ar    1  UNL1       -0.0095
      8 C          -0.9495    3.4095   -0.8304 C.ar    1  UNL1       -0.0534
      9 C          -0.0140    4.3417   -1.2622 C.ar    1  UNL1       -0.0611
     10 C           1.2833    3.9342   -1.4487 C.ar    1  UNL1       -0.0611
     11 C           1.6294    2.6064   -1.1831 C.ar    1  UNL1       -0.0534
     12 C           0.7235    1.6070   -0.7163 C.ar    1  UNL1       -0.0075
     13 C           1.1085    0.2159   -0.4571 C.ar    1  UNL1        0.0186
     14 C           2.4836   -0.2836   -0.5592 C.ar    1  UNL1        0.0814
     15 N           3.5395    0.5474   -0.7105 N.ar    1  UNL1       -0.2543
     16 C           4.8157    0.0946   -0.8029 C.ar    1  UNL1        0.0283
     17 C           5.1637   -1.2318   -0.7550 C.ar    1  UNL1       -0.0429
     18 C           4.1349   -2.1354   -0.5966 C.ar    1  UNL1       -0.0490
     19 C           2.8060   -1.6635   -0.4893 C.ar    1  UNL1        0.0292
     20 C           1.7375   -2.5791   -0.3323 C.ar    1  UNL1        0.1096
     21 N           1.8439   -3.9222   -0.3286 N.ar    1  UNL1       -0.1901
     22 S           0.3138   -4.5230   -0.1928 S.2     1  UNL1        0.1165
     23 N          -0.5310   -3.1132   -0.0967 N.ar    1  UNL1       -0.1901
     24 C           0.3438   -2.0901   -0.1357 C.ar    1  UNL1        0.1089
     25 C           0.0415   -0.6760   -0.0777 C.ar    1  UNL1        0.0212
     26 C          -1.2550   -0.1842    0.2533 C.ar    1  UNL1        0.0000
     27 C          -2.2709   -0.9061    1.0741 C.ar    1  UNL1       -0.0134
     28 C          -2.1569   -1.9017    1.9725 C.2     1  UNL1       -0.0719
     29 H          -3.4765   -2.1206    3.6564 H       1  UNL1        0.0350
     30 H          -3.8145   -3.2386    2.3007 H       1  UNL1        0.0350
     31 H          -5.4241   -1.0546    2.1824 H       1  UNL1        0.0581
     32 H          -5.0882    1.0307    0.3814 H       1  UNL1        0.0624
     33 H          -3.3994    2.3711   -0.7103 H       1  UNL1        0.0624
     34 H          -1.9528    3.7948   -0.6709 H       1  UNL1        0.0624
     35 H          -0.3048    5.3714   -1.4468 H       1  UNL1        0.0618
     36 H           2.0387    4.6329   -1.7974 H       1  UNL1        0.0618
     37 H           2.6696    2.3773   -1.3838 H       1  UNL1        0.0624
     38 H           5.5688    0.8688   -0.9222 H       1  UNL1        0.0830
     39 H           6.1956   -1.5501   -0.8364 H       1  UNL1        0.0633
     40 H           4.3548   -3.1998   -0.5514 H       1  UNL1        0.0625
     41 H          -1.2531   -2.4148    2.2590 H       1  UNL1        0.0581
@<TRIPOS>BOND
     1     1     2    1
     2     2     3    2
     3     3     4   ar
     4     4     5   ar
     5     5     6   ar
     6     6     7   ar
     7     7     8   ar
     8     8     9   ar
     9     9    10   ar
    10    10    11   ar
    11    11    12   ar
    12    12    13   ar
    13    13    14   ar
    14    14    15   ar
    15    15    16   ar
    16    16    17   ar
    17    17    18   ar
    18    18    19   ar
    19    19    20   ar
    20    20    21   ar
    21    21    22   ar
    22    22    23   ar
    23    23    24   ar
    24    24    25   ar
    25    25    26   ar
    26    26    27   ar
    27    27    28    2
    28    28     1    1
    29    27     3   ar
    30    26     6   ar
    31    12     7   ar
    32    25    13   ar
    33    19    14   ar
    34    24    20   ar
    35     1    29    1
    36     1    30    1
    37     2    31    1
    38     4    32    1
    39     5    33    1
    40     8    34    1
    41     9    35    1
    42    10    36    1
    43    11    37    1
    44    16    38    1
    45    17    39    1
    46    18    40    1
    47    28    41    1
