@<TRIPOS>MOLECULE
*****
 38 44 0 0 0
SMALL
GASTEIGER

@<TRIPOS>ATOM
      1 C           4.2177    2.8864    0.2088 C.3     1  UNL1       -0.0148
      2 C           4.9543    1.5853    0.1691 C.2     1  UNL1       -0.0725
      3 C           4.0722    0.5809    0.0806 C.ar    1  UNL1       -0.0212
      4 C           4.3589   -0.8288    0.0379 C.ar    1  UNL1       -0.0537
      5 C           3.3437   -1.7064   -0.0335 C.ar    1  UNL1       -0.0527
      6 C           1.9497   -1.2336   -0.0756 C.ar    1  UNL1       -0.0055
      7 C           0.8626   -2.0857   -0.2213 C.ar    1  UNL1        0.0282
      8 C           0.8968   -3.4501   -0.4060 C.ar    1  UNL1        0.1000
      9 O          -0.3644   -3.9336   -0.6244 O.2     1  UNL1       -0.4698
     10 C          -1.2216   -2.8677   -0.5718 C.ar    1  UNL1        0.1000
     11 C          -0.5017   -1.7528   -0.2636 C.ar    1  UNL1        0.0293
     12 C          -0.8781   -0.3726   -0.1187 C.ar    1  UNL1        0.0088
     13 C           0.1841    0.5457   -0.1208 C.ar    1  UNL1        0.0295
     14 S          -0.5099    2.1315   -0.2946 S.2     1  UNL1       -0.0876
     15 C          -2.1383    1.5805   -0.2430 C.ar    1  UNL1        0.0211
     16 C          -3.3094    2.3841   -0.3658 C.ar    1  UNL1       -0.0468
     17 C          -4.5971    1.8473   -0.2202 C.ar    1  UNL1       -0.0524
     18 C          -4.5771    0.5051    0.1319 C.ar    1  UNL1       -0.0102
     19 C          -5.7442   -0.1592    0.4371 C.ar    1  UNL1       -0.0166
     20 S          -5.4409   -1.7648    0.9820 S.2     1  UNL1       -0.1039
     21 C          -3.7363   -1.5723    0.8161 C.ar    1  UNL1       -0.0160
     22 C          -3.4538   -0.3514    0.2735 C.ar    1  UNL1       -0.0021
     23 C          -2.1531    0.2097   -0.0257 C.ar    1  UNL1        0.0058
     24 C           1.5683    0.1491   -0.0459 C.ar    1  UNL1        0.0045
     25 C           2.7017    1.1074    0.0455 C.ar    1  UNL1       -0.0130
     26 C           2.7828    2.4475    0.1307 C.2     1  UNL1       -0.0719
     27 H           4.4140    3.4231    1.1415 H       1  UNL1        0.0350
     28 H           4.4831    3.5183   -0.6437 H       1  UNL1        0.0350
     29 H           6.0280    1.4900    0.2161 H       1  UNL1        0.0581
     30 H           5.3901   -1.1628    0.0701 H       1  UNL1        0.0624
     31 H           3.5495   -2.7696   -0.0603 H       1  UNL1        0.0624
     32 H           1.6794   -4.1941   -0.4528 H       1  UNL1        0.1036
     33 H          -2.2492   -3.1008   -0.8063 H       1  UNL1        0.1036
     34 H          -3.2030    3.4494   -0.5662 H       1  UNL1        0.0629
     35 H          -5.4885    2.4563   -0.3053 H       1  UNL1        0.0624
     36 H          -6.7611    0.2083    0.4092 H       1  UNL1        0.0699
     37 H          -3.0864   -2.3600    1.1629 H       1  UNL1        0.0700
     38 H           1.9772    3.1603    0.1525 H       1  UNL1        0.0581
@<TRIPOS>BOND
     1     1     2    1
     2     2     3    2
     3     3     4   ar
     4     4     5   ar
     5     5     6   ar
     6     6     7   ar
     7     7     8   ar
     8     8     9   ar
     9     9    10   ar
    10    10    11   ar
    11    11    12   ar
    12    12    13   ar
    13    13    14   ar
    14    14    15   ar
    15    15    16   ar
    16    16    17   ar
    17    17    18   ar
    18    18    19   ar
    19    19    20   ar
    20    20    21   ar
    21    21    22   ar
    22    22    23   ar
    23    13    24   ar
    24    24    25   ar
    25    25    26    2
    26    26     1    1
    27    25     3   ar
    28    24     6   ar
    29    11     7   ar
    30    23    12   ar
    31    23    15   ar
    32    22    18   ar
    33     1    27    1
    34     1    28    1
    35     2    29    1
    36     4    30    1
    37     5    31    1
    38     8    32    1
    39    10    33    1
    40    16    34    1
    41    17    35    1
    42    19    36    1
    43    21    37    1
    44    26    38    1
