@<TRIPOS>MOLECULE
*****
 40 46 0 0 0
SMALL
GASTEIGER

@<TRIPOS>ATOM
      1 C          -4.1493   -1.7996    0.8505 C.3     1  UNL1       -0.0148
      2 C          -4.7390   -0.5066    0.3776 C.2     1  UNL1       -0.0725
      3 C          -3.7481    0.3294    0.0397 C.ar    1  UNL1       -0.0212
      4 C          -3.8517    1.7195   -0.3035 C.ar    1  UNL1       -0.0537
      5 C          -2.7265    2.4515   -0.3704 C.ar    1  UNL1       -0.0528
      6 C          -1.3991    1.8275   -0.1745 C.ar    1  UNL1       -0.0085
      7 C          -0.2115    2.5632   -0.0533 C.ar    1  UNL1       -0.0025
      8 C          -0.1760    3.9399    0.0021 C.ar    1  UNL1       -0.0160
      9 S           1.4106    4.5389    0.2109 S.2     1  UNL1       -0.1038
     10 C           2.0653    2.9550    0.2309 C.ar    1  UNL1       -0.0160
     11 C           1.1119    1.9720    0.0778 C.ar    1  UNL1       -0.0023
     12 C           1.3922    0.5647    0.0126 C.ar    1  UNL1       -0.0044
     13 C           2.6941   -0.0710    0.1020 C.ar    1  UNL1       -0.0276
     14 C           4.0557    0.5243    0.3680 C.3     1  UNL1       -0.0080
     15 C           4.9566   -0.6911    0.3258 C.2     1  UNL1       -0.0791
     16 C           4.2927   -1.8250    0.0596 C.2     1  UNL1       -0.0573
     17 C           2.9083   -1.4493   -0.0772 C.ar    1  UNL1       -0.0130
     18 C           1.7851   -2.1667   -0.4356 C.ar    1  UNL1       -0.0029
     19 C           1.8172   -3.4932   -0.7911 C.ar    1  UNL1       -0.0160
     20 S           0.2868   -4.0168   -1.3530 S.2     1  UNL1       -0.1038
     21 C          -0.3996   -2.4586   -1.1245 C.ar    1  UNL1       -0.0160
     22 C           0.4635   -1.5742   -0.5120 C.ar    1  UNL1       -0.0020
     23 C           0.1459   -0.1990   -0.1897 C.ar    1  UNL1       -0.0005
     24 C          -1.1905    0.4089   -0.1085 C.ar    1  UNL1       -0.0016
     25 C          -2.4533   -0.3368    0.1730 C.ar    1  UNL1       -0.0135
     26 C          -2.6746   -1.5432    0.7264 C.2     1  UNL1       -0.0719
     27 H          -4.4611   -2.6366    0.2193 H       1  UNL1        0.0350
     28 H          -4.4249   -1.9977    1.8905 H       1  UNL1        0.0350
     29 H          -5.7920   -0.2721    0.4012 H       1  UNL1        0.0581
     30 H          -4.8282    2.1653   -0.4539 H       1  UNL1        0.0624
     31 H          -2.7922    3.5053   -0.6099 H       1  UNL1        0.0624
     32 H          -0.9871    4.6513   -0.0494 H       1  UNL1        0.0700
     33 H           3.1317    2.8820    0.3523 H       1  UNL1        0.0700
     34 H           4.3514    1.2184   -0.4237 H       1  UNL1        0.0356
     35 H           4.1009    0.9927    1.3553 H       1  UNL1        0.0356
     36 H           6.0244   -0.6323    0.4854 H       1  UNL1        0.0575
     37 H           4.6967   -2.8188   -0.0336 H       1  UNL1        0.0621
     38 H           2.6547   -4.1767   -0.7999 H       1  UNL1        0.0700
     39 H          -1.4119   -2.3000   -1.4656 H       1  UNL1        0.0700
     40 H          -1.9292   -2.2442    1.0685 H       1  UNL1        0.0581
@<TRIPOS>BOND
     1     1     2    1
     2     2     3    2
     3     3     4   ar
     4     4     5   ar
     5     5     6   ar
     6     6     7   ar
     7     7     8   ar
     8     8     9   ar
     9     9    10   ar
    10    10    11   ar
    11    11    12   ar
    12    12    13   ar
    13    13    14    1
    14    14    15    1
    15    15    16    2
    16    16    17    1
    17    17    18   ar
    18    18    19   ar
    19    19    20   ar
    20    20    21   ar
    21    21    22   ar
    22    22    23   ar
    23    23    24   ar
    24    24    25   ar
    25    25    26    2
    26    26     1    1
    27    25     3   ar
    28    24     6   ar
    29    11     7   ar
    30    23    12   ar
    31    17    13   ar
    32    22    18   ar
    33     1    27    1
    34     1    28    1
    35     2    29    1
    36     4    30    1
    37     5    31    1
    38     8    32    1
    39    10    33    1
    40    14    34    1
    41    14    35    1
    42    15    36    1
    43    16    37    1
    44    19    38    1
    45    21    39    1
    46    26    40    1
