@<TRIPOS>MOLECULE
*****
 40 46 0 0 0
SMALL
GASTEIGER

@<TRIPOS>ATOM
      1 C          -4.2240    1.8990    0.0416 C.3     1  UNL1       -0.0148
      2 C          -4.8068    0.5309   -0.1367 C.2     1  UNL1       -0.0725
      3 C          -3.8134   -0.3671   -0.1769 C.ar    1  UNL1       -0.0212
      4 C          -3.9229   -1.7986   -0.1734 C.ar    1  UNL1       -0.0537
      5 C          -2.8120   -2.5291    0.0240 C.ar    1  UNL1       -0.0528
      6 C          -1.4890   -1.8809    0.1588 C.ar    1  UNL1       -0.0085
      7 C          -0.3243   -2.5660    0.5284 C.ar    1  UNL1       -0.0025
      8 C          -0.3160   -3.8954    0.8935 C.ar    1  UNL1       -0.0160
      9 S           1.2441   -4.4390    1.3268 S.2     1  UNL1       -0.1038
     10 C           1.9225   -2.8948    1.0319 C.ar    1  UNL1       -0.0159
     11 C           0.9968   -1.9582    0.6185 C.ar    1  UNL1       -0.0005
     12 C           1.3164   -0.5975    0.2659 C.ar    1  UNL1        0.0175
     13 C           2.6546    0.0070    0.3625 C.ar    1  UNL1        0.0799
     14 N           3.6881   -0.6407    0.9494 N.ar    1  UNL1       -0.2543
     15 C           4.9115   -0.0683    1.0521 C.ar    1  UNL1        0.0283
     16 C           5.2167    1.1859    0.5796 C.ar    1  UNL1       -0.0430
     17 C           4.2020    1.8902   -0.0393 C.ar    1  UNL1       -0.0505
     18 C           2.9141    1.3074   -0.1501 C.ar    1  UNL1        0.0092
     19 C           1.7976    1.8896   -0.7970 C.ar    1  UNL1       -0.0011
     20 C           1.8631    3.0853   -1.4799 C.ar    1  UNL1       -0.0160
     21 S           0.4023    3.4335   -2.2993 S.2     1  UNL1       -0.1038
     22 C          -0.3156    1.9832   -1.7394 C.ar    1  UNL1       -0.0160
     23 C           0.4800    1.3011   -0.8420 C.ar    1  UNL1       -0.0019
     24 C           0.0994    0.0720   -0.2167 C.ar    1  UNL1        0.0013
     25 C          -1.2553   -0.4921   -0.1005 C.ar    1  UNL1       -0.0015
     26 C          -2.5171    0.3062   -0.1123 C.ar    1  UNL1       -0.0135
     27 C          -2.7502    1.6144    0.0995 C.2     1  UNL1       -0.0719
     28 H          -4.5709    2.3533    0.9745 H       1  UNL1        0.0350
     29 H          -4.4693    2.5516   -0.8011 H       1  UNL1        0.0350
     30 H          -5.8638    0.3138   -0.1389 H       1  UNL1        0.0581
     31 H          -4.8959   -2.2642   -0.2807 H       1  UNL1        0.0624
     32 H          -2.8843   -3.6091    0.0481 H       1  UNL1        0.0624
     33 H          -1.1332   -4.5992    0.9483 H       1  UNL1        0.0700
     34 H           2.9860   -2.7956    1.1824 H       1  UNL1        0.0700
     35 H           5.6623   -0.6788    1.5463 H       1  UNL1        0.0830
     36 H           6.2126    1.5986    0.6855 H       1  UNL1        0.0633
     37 H           4.4124    2.8804   -0.4296 H       1  UNL1        0.0625
     38 H           2.6936    3.7661   -1.5974 H       1  UNL1        0.0700
     39 H          -1.2959    1.7282   -2.1152 H       1  UNL1        0.0700
     40 H          -2.0163    2.3770    0.3089 H       1  UNL1        0.0581
@<TRIPOS>BOND
     1     1     2    1
     2     2     3    2
     3     3     4   ar
     4     4     5   ar
     5     5     6   ar
     6     6     7   ar
     7     7     8   ar
     8     8     9   ar
     9     9    10   ar
    10    10    11   ar
    11    11    12   ar
    12    12    13   ar
    13    13    14   ar
    14    14    15   ar
    15    15    16   ar
    16    16    17   ar
    17    17    18   ar
    18    18    19   ar
    19    19    20   ar
    20    20    21   ar
    21    21    22   ar
    22    22    23   ar
    23    23    24   ar
    24    24    25   ar
    25    25    26   ar
    26    26    27    2
    27    27     1    1
    28    26     3   ar
    29    25     6   ar
    30    11     7   ar
    31    24    12   ar
    32    18    13   ar
    33    23    19   ar
    34     1    28    1
    35     1    29    1
    36     2    30    1
    37     4    31    1
    38     5    32    1
    39     8    33    1
    40    10    34    1
    41    15    35    1
    42    16    36    1
    43    17    37    1
    44    20    38    1
    45    22    39    1
    46    27    40    1
