@<TRIPOS>MOLECULE
*****
 38 43 0 0 0
SMALL
GASTEIGER

@<TRIPOS>ATOM
      1 C           6.0149    0.2465    0.3119 C.ar    1  UNL1       -0.0232
      2 C           5.4550    1.4833    0.1579 C.ar    1  UNL1       -0.0470
      3 C           4.0186    1.4434    0.1105 C.ar    1  UNL1       -0.0102
      4 C           3.1420    2.5242   -0.0380 C.ar    1  UNL1       -0.0529
      5 C           1.7747    2.3033   -0.0633 C.ar    1  UNL1       -0.0513
      6 C           1.2051    1.0263    0.0544 C.ar    1  UNL1        0.0098
      7 C          -0.1964    0.9389    0.0134 C.ar    1  UNL1        0.0793
      8 N          -0.9251    2.0728   -0.1356 N.ar    1  UNL1       -0.2537
      9 C          -2.2744    2.0263   -0.1792 C.ar    1  UNL1        0.0365
     10 C          -3.0167    0.8700   -0.0808 C.ar    1  UNL1        0.0089
     11 C          -2.2572   -0.2951    0.0727 C.ar    1  UNL1       -0.0422
     12 C          -0.8279   -0.3114    0.1260 C.ar    1  UNL1        0.0093
     13 C          -0.0454   -1.5033    0.2831 C.ar    1  UNL1       -0.0081
     14 C          -0.6650   -2.7820    0.3992 C.ar    1  UNL1       -0.0534
     15 C           0.0450   -3.9672    0.5531 C.ar    1  UNL1       -0.0611
     16 C           1.4151   -3.9130    0.5966 C.ar    1  UNL1       -0.0611
     17 C           2.0538   -2.6759    0.4857 C.ar    1  UNL1       -0.0534
     18 C           1.3794   -1.4299    0.3265 C.ar    1  UNL1       -0.0084
     19 C           2.0345   -0.1288    0.2093 C.ar    1  UNL1        0.0062
     20 C           3.4845    0.1473    0.2316 C.ar    1  UNL1        0.0277
     21 S           4.8306   -0.9549    0.3994 S.2     1  UNL1       -0.0960
     22 C          -4.4900    0.8969   -0.1367 C.ar    1  UNL1        0.0402
     23 C          -5.3557    1.9737   -0.2847 C.ar    1  UNL1        0.0425
     24 N          -6.7084    1.6898   -0.3026 N.ar    1  UNL1       -0.2551
     25 C          -6.8755    0.3957   -0.1683 C.ar    1  UNL1        0.0652
     26 S          -5.4502   -0.5347   -0.0161 S.2     1  UNL1       -0.0754
     27 H           7.0651   -0.0028    0.3768 H       1  UNL1        0.0694
     28 H           6.0393    2.3921    0.0806 H       1  UNL1        0.0629
     29 H           3.5239    3.5376   -0.1339 H       1  UNL1        0.0624
     30 H           1.1396    3.1826   -0.1814 H       1  UNL1        0.0624
     31 H          -2.7334    3.0027   -0.3014 H       1  UNL1        0.0836
     32 H          -2.7956   -1.2319    0.1547 H       1  UNL1        0.0631
     33 H          -1.7445   -2.8951    0.3726 H       1  UNL1        0.0624
     34 H          -0.4758   -4.9165    0.6371 H       1  UNL1        0.0618
     35 H           2.0012   -4.8203    0.7159 H       1  UNL1        0.0618
     36 H           3.1296   -2.7397    0.5313 H       1  UNL1        0.0624
     37 H          -5.0579    3.0104   -0.3863 H       1  UNL1        0.0841
     38 H          -7.8566   -0.0611   -0.1541 H       1  UNL1        0.0907
@<TRIPOS>BOND
     1     1     2   ar
     2     2     3   ar
     3     3     4   ar
     4     4     5   ar
     5     5     6   ar
     6     6     7   ar
     7     7     8   ar
     8     8     9   ar
     9     9    10   ar
    10    10    11   ar
    11    11    12   ar
    12    12    13   ar
    13    13    14   ar
    14    14    15   ar
    15    15    16   ar
    16    16    17   ar
    17    17    18   ar
    18    18    19   ar
    19    19    20   ar
    20    20    21   ar
    21    10    22    1
    22    22    23   ar
    23    23    24   ar
    24    24    25   ar
    25    25    26   ar
    26    21     1   ar
    27    26    22   ar
    28    20     3   ar
    29    19     6   ar
    30    12     7   ar
    31    18    13   ar
    32     1    27    1
    33     2    28    1
    34     4    29    1
    35     5    30    1
    36     9    31    1
    37    11    32    1
    38    14    33    1
    39    15    34    1
    40    16    35    1
    41    17    36    1
    42    23    37    1
    43    25    38    1
