@<TRIPOS>MOLECULE
*****
 33 38 0 0 0
SMALL
GASTEIGER

@<TRIPOS>ATOM
      1 C           5.8769   -1.2643   -1.6187 C.ar    1  UNL1        0.0933
      2 C           6.2287   -0.3575   -0.6411 C.ar    1  UNL1       -0.0160
      3 C           5.0161    0.1214   -0.0840 C.ar    1  UNL1        0.0238
      4 C           4.6331    1.0351    0.9225 C.ar    1  UNL1       -0.0501
      5 C           3.2628    1.2856    1.2355 C.ar    1  UNL1       -0.0481
      6 C           2.2051    0.6361    0.5589 C.ar    1  UNL1        0.0499
      7 C           0.7897    0.6380    0.6024 C.ar    1  UNL1        0.1167
      8 N          -0.0719    1.3348    1.3847 N.ar    1  UNL1       -0.2506
      9 C          -1.3824    1.0652    1.1398 C.ar    1  UNL1        0.0363
     10 C          -1.9015    0.1756    0.1828 C.ar    1  UNL1        0.0073
     11 C          -0.9781   -0.5238   -0.6118 C.ar    1  UNL1       -0.0079
     12 C           0.3654   -0.2637   -0.3667 C.ar    1  UNL1        0.1552
     13 O           1.4306   -0.8219   -1.0061 O.2     1  UNL1       -0.4495
     14 C           2.5327   -0.2698   -0.4369 C.ar    1  UNL1        0.1803
     15 C           4.0141   -0.5388   -0.7737 C.ar    1  UNL1        0.1774
     16 O           4.5237   -1.3800   -1.7054 O.2     1  UNL1       -0.4592
     17 C          -3.3423   -0.0103   -0.0020 C.ar    1  UNL1        0.0299
     18 C          -3.9825   -0.0458   -1.2523 C.ar    1  UNL1        0.0375
     19 N          -5.3186   -0.2210   -1.5229 N.ar    1  UNL1       -0.2604
     20 C          -6.2163   -0.3917   -0.5112 C.ar    1  UNL1        0.0557
     21 C          -5.7317   -0.3822    0.8101 C.ar    1  UNL1        0.1185
     22 N          -6.4595   -0.5353    1.9278 N.ar    1  UNL1       -0.1892
     23 S          -5.3937   -0.4546    3.1963 S.2     1  UNL1        0.1165
     24 N          -3.9680   -0.2119    2.3852 N.ar    1  UNL1       -0.1901
     25 C          -4.2582   -0.1864    1.0710 C.ar    1  UNL1        0.1105
     26 H           6.4402   -1.8802   -2.3061 H       1  UNL1        0.1030
     27 H           7.2362   -0.0790   -0.3669 H       1  UNL1        0.0655
     28 H           5.4004    1.5683    1.4814 H       1  UNL1        0.0625
     29 H           3.0229    2.0003    2.0218 H       1  UNL1        0.0625
     30 H          -2.0553    1.6389    1.7776 H       1  UNL1        0.0836
     31 H          -1.2699   -1.2420   -1.3687 H       1  UNL1        0.0661
     32 H          -3.3915    0.0877   -2.1605 H       1  UNL1        0.0836
     33 H          -7.2572   -0.5268   -0.7733 H       1  UNL1        0.0852
@<TRIPOS>BOND
     1     1     2   ar
     2     2     3   ar
     3     3     4   ar
     4     4     5   ar
     5     5     6   ar
     6     6     7   ar
     7     7     8   ar
     8     8     9   ar
     9     9    10   ar
    10    10    11   ar
    11    11    12   ar
    12    12    13   ar
    13    13    14   ar
    14    14    15   ar
    15    15    16   ar
    16    10    17    1
    17    17    18   ar
    18    18    19   ar
    19    19    20   ar
    20    20    21   ar
    21    21    22   ar
    22    22    23   ar
    23    23    24   ar
    24    24    25   ar
    25    16     1   ar
    26    25    17   ar
    27    15     3   ar
    28    25    21   ar
    29    14     6   ar
    30    12     7   ar
    31     1    26    1
    32     2    27    1
    33     4    28    1
    34     5    29    1
    35     9    30    1
    36    11    31    1
    37    18    32    1
    38    20    33    1
