@<TRIPOS>MOLECULE
*****
 32 37 0 0 0
SMALL
GASTEIGER

@<TRIPOS>ATOM
      1 C          -3.1401   -2.5697   -0.0810 C.3     1  UNL1       -0.0148
      2 C          -3.9331   -1.3006   -0.0754 C.2     1  UNL1       -0.0725
      3 C          -3.0953   -0.2554   -0.0615 C.ar    1  UNL1       -0.0212
      4 C          -3.4359    1.1409   -0.0519 C.ar    1  UNL1       -0.0537
      5 C          -2.4521    2.0555   -0.0383 C.ar    1  UNL1       -0.0513
      6 C          -1.0260    1.6531   -0.0329 C.ar    1  UNL1        0.0112
      7 C          -0.0268    2.6883   -0.0182 C.ar    1  UNL1        0.1083
      8 N          -0.2267    4.0199   -0.0084 N.ar    1  UNL1       -0.1901
      9 S           1.2728    4.7317    0.0067 S.2     1  UNL1        0.1165
     10 N           2.2551    3.3961    0.0016 N.ar    1  UNL1       -0.1900
     11 C           1.4438    2.3281   -0.0122 C.ar    1  UNL1        0.1114
     12 C           1.7785    0.9725   -0.0215 C.ar    1  UNL1        0.0497
     13 C           3.0104    0.2939   -0.0197 C.ar    1  UNL1        0.1407
     14 O           4.2733    0.7108   -0.0087 O.2     1  UNL1       -0.4626
     15 C           4.9955   -0.4605   -0.0141 C.ar    1  UNL1        0.0929
     16 C           4.1603   -1.5743   -0.0284 C.ar    1  UNL1       -0.0198
     17 C           2.8576   -1.0575   -0.0319 C.ar    1  UNL1        0.0027
     18 C           1.4223   -1.4676   -0.0440 C.3     1  UNL1        0.0025
     19 C           0.7700   -0.0506   -0.0362 C.ar    1  UNL1       -0.0218
     20 C          -0.6031    0.2681   -0.0419 C.ar    1  UNL1       -0.0041
     21 C          -1.7074   -0.7212   -0.0569 C.ar    1  UNL1       -0.0137
     22 C          -1.7229   -2.0657   -0.0681 C.2     1  UNL1       -0.0720
     23 H          -3.3400   -3.1572   -0.9819 H       1  UNL1        0.0350
     24 H          -3.3510   -3.1720    0.8074 H       1  UNL1        0.0350
     25 H          -5.0113   -1.2537   -0.0816 H       1  UNL1        0.0581
     26 H          -4.4789    1.4379   -0.0557 H       1  UNL1        0.0624
     27 H          -2.6889    3.1154   -0.0308 H       1  UNL1        0.0624
     28 H           6.0694   -0.3333   -0.0066 H       1  UNL1        0.1029
     29 H           4.4801   -2.6064   -0.0351 H       1  UNL1        0.0652
     30 H           1.1619   -2.0213    0.8613 H       1  UNL1        0.0363
     31 H           1.1729   -2.0062   -0.9615 H       1  UNL1        0.0363
     32 H          -0.8841   -2.7392   -0.0686 H       1  UNL1        0.0581
@<TRIPOS>BOND
     1     1     2    1
     2     2     3    2
     3     3     4   ar
     4     4     5   ar
     5     5     6   ar
     6     6     7   ar
     7     7     8   ar
     8     8     9   ar
     9     9    10   ar
    10    10    11   ar
    11    11    12   ar
    12    12    13    1
    13    13    14   ar
    14    14    15   ar
    15    15    16   ar
    16    16    17   ar
    17    17    18    1
    18    18    19    1
    19    19    20   ar
    20    20    21   ar
    21    21    22    2
    22    22     1    1
    23    21     3   ar
    24    20     6   ar
    25    11     7   ar
    26    19    12   ar
    27    17    13   ar
    28     1    23    1
    29     1    24    1
    30     2    25    1
    31     4    26    1
    32     5    27    1
    33    15    28    1
    34    16    29    1
    35    18    30    1
    36    18    31    1
    37    22    32    1
