@<TRIPOS>MOLECULE
*****
 43 50 0 0 0
SMALL
GASTEIGER

@<TRIPOS>ATOM
      1 SI         -1.7355    3.9388   -0.0209 Si      1  UNL1        0.0000
      2 C          -0.1111    3.0287    0.0182 C.2     1  UNL1        0.0000
      3 C          -0.2760    1.6884   -0.0193 C.ar    1  UNL1        0.0000
      4 C           0.8283    0.7012    0.0679 C.ar    1  UNL1        0.0000
      5 C           2.1825    1.1057   -0.1032 C.ar    1  UNL1        0.0000
      6 C           3.2647    0.2106   -0.1464 C.ar    1  UNL1        0.0000
      7 C           4.6366    0.6563   -0.3267 C.ar    1  UNL1        0.0000
      8 C           5.2249    1.2147   -1.4447 C.ar    1  UNL1        0.0000
      9 C           6.5944    1.5465   -1.2276 C.ar    1  UNL1        0.0000
     10 C           7.0014    1.2408    0.0517 C.ar    1  UNL1        0.0000
     11 S           5.7372    0.5630    0.9832 S.2     1  UNL1        0.0000
     12 C           2.9401   -1.1681   -0.1021 C.ar    1  UNL1        0.0000
     13 N           3.7959   -2.1983   -0.2292 N.ar    1  UNL1        0.0000
     14 S           2.8953   -3.5817   -0.1848 S.2     1  UNL1        0.0000
     15 N           1.3793   -2.9477   -0.0368 N.ar    1  UNL1        0.0000
     16 C           1.4979   -1.6123    0.0772 C.ar    1  UNL1        0.0000
     17 C           0.4391   -0.6596    0.2625 C.ar    1  UNL1        0.0000
     18 C          -0.9771   -1.0441    0.4568 C.ar    1  UNL1        0.0000
     19 C          -1.3927   -2.2297    1.1344 C.ar    1  UNL1        0.0000
     20 N          -0.6413   -3.0225    1.9195 N.ar    1  UNL1        0.0000
     21 S          -1.5886   -4.2771    2.4216 S.2     1  UNL1        0.0000
     22 N          -3.0338   -3.8512    1.7385 N.ar    1  UNL1        0.0000
     23 C          -2.8249   -2.6991    1.0745 C.ar    1  UNL1        0.0000
     24 C          -3.8074   -1.9618    0.3438 C.ar    1  UNL1        0.0000
     25 C          -5.1223   -2.4443    0.1921 C.ar    1  UNL1        0.0000
     26 C          -6.0109   -1.6890   -0.5412 C.ar    1  UNL1        0.0000
     27 N          -5.6786   -0.5250   -1.1269 N.ar    1  UNL1        0.0000
     28 C          -4.4036   -0.0863   -0.9518 C.ar    1  UNL1        0.0000
     29 C          -3.3986   -0.7176   -0.1979 C.ar    1  UNL1        0.0000
     30 C          -2.0549   -0.2129    0.0040 C.ar    1  UNL1        0.0000
     31 C          -1.6932    1.2414   -0.0981 C.ar    1  UNL1        0.0000
     32 C          -2.5712    2.2680   -0.0341 C.2     1  UNL1        0.0000
     33 H          -1.9377    4.6801   -1.2879 H       1  UNL1        0.0000
     34 H          -1.9943    4.6915    1.2287 H       1  UNL1        0.0000
     35 H           0.8022    3.5933    0.1056 H       1  UNL1        0.0000
     36 H           2.4170    2.1625   -0.2240 H       1  UNL1        0.0000
     37 H           4.7020    1.3687   -2.3810 H       1  UNL1        0.0000
     38 H           7.2475    1.9842   -1.9724 H       1  UNL1        0.0000
     39 H           7.9806    1.3821    0.4880 H       1  UNL1        0.0000
     40 H          -5.4352   -3.3875    0.6287 H       1  UNL1        0.0000
     41 H          -7.0364   -2.0134   -0.6918 H       1  UNL1        0.0000
     42 H          -4.1988    0.8213   -1.5138 H       1  UNL1        0.0000
     43 H          -3.6429    2.2414    0.0704 H       1  UNL1        0.0000
@<TRIPOS>BOND
     1     1     2    1
     2     2     3    2
     3     3     4   ar
     4     4     5   ar
     5     5     6   ar
     6     6     7    1
     7     7     8   ar
     8     8     9   ar
     9     9    10   ar
    10    10    11   ar
    11     6    12   ar
    12    12    13   ar
    13    13    14   ar
    14    14    15   ar
    15    15    16   ar
    16    16    17   ar
    17    17    18   ar
    18    18    19   ar
    19    19    20   ar
    20    20    21   ar
    21    21    22   ar
    22    22    23   ar
    23    23    24   ar
    24    24    25   ar
    25    25    26   ar
    26    26    27   ar
    27    27    28   ar
    28    28    29   ar
    29    29    30   ar
    30    30    31   ar
    31    31    32    2
    32    32     1    1
    33    31     3   ar
    34    17     4   ar
    35    30    18   ar
    36    11     7   ar
    37    16    12   ar
    38    23    19   ar
    39    29    24   ar
    40     1    33    1
    41     1    34    1
    42     2    35    1
    43     5    36    1
    44     8    37    1
    45     9    38    1
    46    10    39    1
    47    25    40    1
    48    26    41    1
    49    28    42    1
    50    32    43    1
