@<TRIPOS>MOLECULE
*****
 32 37 0 0 0
SMALL
GASTEIGER

@<TRIPOS>ATOM
      1 C           6.1814   -0.9867   -0.6950 C.ar    1  UNL1        0.0028
      2 C           6.2042    0.2531   -0.0848 C.ar    1  UNL1       -0.0366
      3 C           4.8601    0.6456    0.1480 C.ar    1  UNL1        0.0008
      4 C           4.2032    1.7547    0.7138 C.ar    1  UNL1       -0.0519
      5 C           2.7819    1.8239    0.7897 C.ar    1  UNL1       -0.0517
      6 C           1.9327    0.7945    0.3075 C.ar    1  UNL1        0.0055
      7 C           0.5084    0.6320    0.2693 C.ar    1  UNL1        0.0348
      8 S          -0.8593    1.5816    0.7773 S.2     1  UNL1       -0.0864
      9 C          -1.9622    0.3761    0.2158 C.ar    1  UNL1        0.0311
     10 C          -1.3012   -0.7070   -0.3373 C.ar    1  UNL1       -0.0319
     11 C           0.1166   -0.5476   -0.3004 C.ar    1  UNL1        0.0282
     12 S           1.4758   -1.5172   -0.8181 S.2     1  UNL1       -0.0856
     13 C           2.5251   -0.3165   -0.2573 C.ar    1  UNL1        0.0448
     14 C           4.0751   -0.3803   -0.3343 C.ar    1  UNL1        0.0610
     15 N           4.8689   -1.3639   -0.8423 N.ar    1  UNL1       -0.3598
     16 C          -3.3934    0.5468    0.3419 C.ar    1  UNL1        0.0687
     17 S          -4.1853    1.9341    1.0488 S.2     1  UNL1       -0.0918
     18 C          -5.7854    1.3130    0.7897 C.ar    1  UNL1       -0.0128
     19 C          -5.6606    0.1107    0.1937 C.ar    1  UNL1        0.0278
     20 C          -6.4635   -0.9297   -0.2954 C.ar    1  UNL1       -0.0156
     21 C          -5.5599   -1.8776   -0.7891 C.ar    1  UNL1        0.0932
     22 O          -4.2317   -1.5205   -0.6521 O.2     1  UNL1       -0.4618
     23 C          -4.3722   -0.3043   -0.0487 C.ar    1  UNL1        0.1500
     24 H           6.9822   -1.6293   -1.0352 H       1  UNL1        0.0807
     25 H           7.0948    0.8143    0.1655 H       1  UNL1        0.0638
     26 H           4.7901    2.5831    1.1047 H       1  UNL1        0.0624
     27 H           2.3336    2.7092    1.2391 H       1  UNL1        0.0624
     28 H          -1.7867   -1.5805   -0.7534 H       1  UNL1        0.0640
     29 H           4.5391   -2.2254   -1.2571 H       1  UNL1        0.1654
     30 H          -6.6637    1.8671    1.0886 H       1  UNL1        0.0701
     31 H          -7.5408   -1.0121   -0.3044 H       1  UNL1        0.0655
     32 H          -5.7072   -2.8412   -1.2596 H       1  UNL1        0.1030
@<TRIPOS>BOND
     1     1     2   ar
     2     2     3   ar
     3     3     4   ar
     4     4     5   ar
     5     5     6   ar
     6     6     7   ar
     7     7     8   ar
     8     8     9   ar
     9     9    10   ar
    10    10    11   ar
    11    11    12   ar
    12    12    13   ar
    13    13    14   ar
    14    14    15   ar
    15     9    16    1
    16    16    17   ar
    17    17    18   ar
    18    18    19   ar
    19    19    20   ar
    20    20    21   ar
    21    21    22   ar
    22    22    23   ar
    23    15     1   ar
    24    23    16   ar
    25    14     3   ar
    26    23    19   ar
    27    13     6   ar
    28    11     7   ar
    29     1    24    1
    30     2    25    1
    31     4    26    1
    32     5    27    1
    33    10    28    1
    34    15    29    1
    35    18    30    1
    36    20    31    1
    37    21    32    1
