@<TRIPOS>MOLECULE
*****
 31 35 0 0 0
SMALL
GASTEIGER

@<TRIPOS>ATOM
      1 C           5.5568   -0.4605    0.4199 C.ar    1  UNL1       -0.0232
      2 C           5.1796    0.6190   -0.3374 C.ar    1  UNL1       -0.0470
      3 C           3.7538    0.7556   -0.4448 C.ar    1  UNL1       -0.0101
      4 C           2.9995    1.7323   -1.1329 C.ar    1  UNL1       -0.0529
      5 C           1.6031    1.7008   -1.1227 C.ar    1  UNL1       -0.0533
      6 C           0.9087    0.7091   -0.4368 C.ar    1  UNL1       -0.0140
      7 C          -0.5102    0.7234   -0.4591 C.ar    1  UNL1       -0.0440
      8 C          -1.3418   -0.2176    0.1950 C.ar    1  UNL1        0.0123
      9 C          -2.8053   -0.1574    0.1349 C.ar    1  UNL1        0.0024
     10 C          -3.4840   -0.0028   -1.0823 C.ar    1  UNL1       -0.0511
     11 C          -4.8759    0.0726   -1.1126 C.ar    1  UNL1       -0.0430
     12 C          -5.5635   -0.0031    0.0853 C.ar    1  UNL1        0.0276
     13 N          -4.9611   -0.1473    1.2821 N.ar    1  UNL1       -0.2627
     14 C          -3.6065   -0.2279    1.2769 C.ar    1  UNL1        0.0353
     15 C          -0.6485   -1.2340    0.9135 C.ar    1  UNL1        0.1082
     16 N          -1.2132   -2.2403    1.6050 N.ar    1  UNL1       -0.1901
     17 S           0.0133   -3.1435    2.2435 S.2     1  UNL1        0.1165
     18 N           1.3228   -2.3117    1.6816 N.ar    1  UNL1       -0.1901
     19 C           0.8718   -1.2747    0.9528 C.ar    1  UNL1        0.1092
     20 C           1.6488   -0.2888    0.2679 C.ar    1  UNL1        0.0246
     21 C           3.0707   -0.2524    0.2538 C.ar    1  UNL1        0.0291
     22 S           4.2140   -1.3182    1.0079 S.2     1  UNL1       -0.0960
     23 H           6.5603   -0.7867    0.6563 H       1  UNL1        0.0694
     24 H           5.8913    1.2913   -0.8008 H       1  UNL1        0.0629
     25 H           3.5114    2.5220   -1.6791 H       1  UNL1        0.0624
     26 H           1.0707    2.4784   -1.6689 H       1  UNL1        0.0624
     27 H          -1.0054    1.5274   -1.0102 H       1  UNL1        0.0630
     28 H          -2.9350    0.0455   -2.0199 H       1  UNL1        0.0625
     29 H          -5.4096    0.1843   -2.0496 H       1  UNL1        0.0633
     30 H          -6.6479    0.0503    0.1150 H       1  UNL1        0.0829
     31 H          -3.1687   -0.3450    2.2658 H       1  UNL1        0.0836
@<TRIPOS>BOND
     1     1     2   ar
     2     2     3   ar
     3     3     4   ar
     4     4     5   ar
     5     5     6   ar
     6     6     7   ar
     7     7     8   ar
     8     8     9    1
     9     9    10   ar
    10    10    11   ar
    11    11    12   ar
    12    12    13   ar
    13    13    14   ar
    14     8    15   ar
    15    15    16   ar
    16    16    17   ar
    17    17    18   ar
    18    18    19   ar
    19    19    20   ar
    20    20    21   ar
    21    21    22   ar
    22    22     1   ar
    23    21     3   ar
    24    20     6   ar
    25    14     9   ar
    26    19    15   ar
    27     1    23    1
    28     2    24    1
    29     4    25    1
    30     5    26    1
    31     7    27    1
    32    10    28    1
    33    11    29    1
    34    12    30    1
    35    14    31    1
