@<TRIPOS>MOLECULE
*****
 35 40 0 0 0
SMALL
GASTEIGER

@<TRIPOS>ATOM
      1 C          -4.4872    1.7513    0.7657 C.3     1  UNL1       -0.0148
      2 C          -4.8981    0.4482    0.1425 C.2     1  UNL1       -0.0725
      3 C          -3.8028   -0.2550   -0.1750 C.ar    1  UNL1       -0.0212
      4 C          -3.7098   -1.5531   -0.7888 C.ar    1  UNL1       -0.0537
      5 C          -2.4941   -2.0820   -1.0220 C.ar    1  UNL1       -0.0534
      6 C          -1.2430   -1.3620   -0.6631 C.ar    1  UNL1       -0.0166
      7 C          -0.0085   -1.9597   -0.9288 C.ar    1  UNL1       -0.0442
      8 C           1.1907   -1.2946   -0.5966 C.ar    1  UNL1        0.0112
      9 C           2.4830   -1.8906   -0.8609 C.ar    1  UNL1        0.1082
     10 N           2.7228   -3.0889   -1.4255 N.ar    1  UNL1       -0.1901
     11 S           4.3724   -3.2673   -1.4868 S.2     1  UNL1        0.1165
     12 N           4.8727   -1.8397   -0.8029 N.ar    1  UNL1       -0.1902
     13 C           3.7572   -1.1587   -0.4958 C.ar    1  UNL1        0.1079
     14 C           3.6524    0.1053    0.1019 C.ar    1  UNL1        0.0069
     15 C           4.7031    0.9962    0.5392 C.2     1  UNL1       -0.0558
     16 C           4.0955    2.0812    1.0450 C.2     1  UNL1       -0.0790
     17 C           2.5848    1.9996    0.9849 C.3     1  UNL1       -0.0080
     18 C           2.3766    0.6501    0.3421 C.ar    1  UNL1       -0.0266
     19 C           1.1658   -0.0015    0.0160 C.ar    1  UNL1       -0.0111
     20 C          -0.0870    0.5821    0.2748 C.ar    1  UNL1       -0.0454
     21 C          -1.2798   -0.0787   -0.0554 C.ar    1  UNL1       -0.0099
     22 C          -2.6111    0.4968    0.1983 C.ar    1  UNL1       -0.0141
     23 C          -2.9857    1.6644    0.7461 C.2     1  UNL1       -0.0720
     24 H          -4.8397    2.6002    0.1727 H       1  UNL1        0.0350
     25 H          -4.8629    1.8341    1.7898 H       1  UNL1        0.0350
     26 H          -5.9205    0.1426   -0.0170 H       1  UNL1        0.0581
     27 H          -4.6168   -2.0845   -1.0535 H       1  UNL1        0.0624
     28 H          -2.4024   -3.0597   -1.4840 H       1  UNL1        0.0624
     29 H           0.0341   -2.9427   -1.3942 H       1  UNL1        0.0630
     30 H           5.7598    0.7974    0.4599 H       1  UNL1        0.0621
     31 H           4.6180    2.9339    1.4566 H       1  UNL1        0.0575
     32 H           2.1798    2.8026    0.3623 H       1  UNL1        0.0356
     33 H           2.1567    2.0304    1.9910 H       1  UNL1        0.0356
     34 H          -0.1390    1.5633    0.7392 H       1  UNL1        0.0630
     35 H          -2.3369    2.4390    1.1224 H       1  UNL1        0.0581
@<TRIPOS>BOND
     1     1     2    1
     2     2     3    2
     3     3     4   ar
     4     4     5   ar
     5     5     6   ar
     6     6     7   ar
     7     7     8   ar
     8     8     9   ar
     9     9    10   ar
    10    10    11   ar
    11    11    12   ar
    12    12    13   ar
    13    13    14   ar
    14    14    15    1
    15    15    16    2
    16    16    17    1
    17    17    18    1
    18    18    19   ar
    19    19    20   ar
    20    20    21   ar
    21    21    22   ar
    22    22    23    2
    23    23     1    1
    24    22     3   ar
    25    21     6   ar
    26    19     8   ar
    27    13     9   ar
    28    18    14   ar
    29     1    24    1
    30     1    25    1
    31     2    26    1
    32     4    27    1
    33     5    28    1
    34     7    29    1
    35    15    30    1
    36    16    31    1
    37    17    32    1
    38    17    33    1
    39    20    34    1
    40    23    35    1
