@<TRIPOS>MOLECULE
*****
 37 42 0 0 0
SMALL
GASTEIGER

@<TRIPOS>ATOM
      1 C          -6.0712    0.9748    1.0330 C.ar    1  UNL1        0.0027
      2 C          -6.1772   -0.2907    0.5069 C.ar    1  UNL1       -0.0366
      3 C          -4.8729   -0.7128    0.1282 C.ar    1  UNL1        0.0003
      4 C          -4.3661   -1.8892   -0.4531 C.ar    1  UNL1       -0.0520
      5 C          -2.9935   -2.0000   -0.7089 C.ar    1  UNL1       -0.0533
      6 C          -2.1084   -0.9604   -0.3971 C.ar    1  UNL1       -0.0153
      7 C          -0.7319   -1.0721   -0.6535 C.ar    1  UNL1       -0.0461
      8 C           0.1600   -0.0299   -0.3407 C.ar    1  UNL1       -0.0138
      9 C           1.5346   -0.1347   -0.5930 C.ar    1  UNL1       -0.0274
     10 C           2.3702    0.9286   -0.2651 C.ar    1  UNL1        0.0787
     11 N           1.9157    2.0737    0.2923 N.ar    1  UNL1       -0.2538
     12 C           0.5868    2.1586    0.5284 C.ar    1  UNL1        0.0360
     13 C          -0.3359    1.1520    0.2395 C.ar    1  UNL1        0.0009
     14 C          -1.7103    1.2819    0.5031 C.ar    1  UNL1       -0.0429
     15 C          -2.5954    0.2318    0.1878 C.ar    1  UNL1        0.0066
     16 C          -3.9898    0.3245    0.4388 C.ar    1  UNL1        0.0543
     17 N          -4.7515    1.3362    0.9873 N.ar    1  UNL1       -0.3602
     18 C           3.8111    0.8664   -0.4914 C.ar    1  UNL1        0.0458
     19 S           4.6477    2.1954   -1.2206 S.2     1  UNL1       -0.0934
     20 C           6.1741    1.3989   -1.1781 C.ar    1  UNL1       -0.0094
     21 C           6.0475    0.1603   -0.6200 C.ar    1  UNL1        0.0270
     22 S           7.2737   -1.1199   -0.3027 S.2     1  UNL1       -0.0961
     23 C           5.9278   -2.0267    0.3734 C.ar    1  UNL1       -0.0231
     24 C           4.6780   -1.3966    0.3437 C.ar    1  UNL1       -0.0458
     25 C           4.7289   -0.1053   -0.2502 C.ar    1  UNL1        0.0054
     26 H          -6.8178    1.6470    1.4339 H       1  UNL1        0.0807
     27 H          -7.0938   -0.8564    0.4034 H       1  UNL1        0.0638
     28 H          -5.0340   -2.7085   -0.7035 H       1  UNL1        0.0624
     29 H          -2.6249   -2.9193   -1.1595 H       1  UNL1        0.0624
     30 H          -0.3480   -1.9857   -1.1047 H       1  UNL1        0.0630
     31 H           1.9440   -1.0292   -1.0518 H       1  UNL1        0.0645
     32 H           0.2735    3.0986    0.9754 H       1  UNL1        0.0836
     33 H          -2.0813    2.1990    0.9510 H       1  UNL1        0.0631
     34 H          -4.3849    2.2201    1.3097 H       1  UNL1        0.1653
     35 H           7.0784    1.8600   -1.5503 H       1  UNL1        0.0705
     36 H           6.1486   -3.0070    0.7736 H       1  UNL1        0.0694
     37 H           3.7881   -1.8635    0.7477 H       1  UNL1        0.0629
@<TRIPOS>BOND
     1     1     2   ar
     2     2     3   ar
     3     3     4   ar
     4     4     5   ar
     5     5     6   ar
     6     6     7   ar
     7     7     8   ar
     8     8     9   ar
     9     9    10   ar
    10    10    11   ar
    11    11    12   ar
    12    12    13   ar
    13    13    14   ar
    14    14    15   ar
    15    15    16   ar
    16    16    17   ar
    17    10    18    1
    18    18    19   ar
    19    19    20   ar
    20    20    21   ar
    21    21    22   ar
    22    22    23   ar
    23    23    24   ar
    24    24    25   ar
    25    17     1   ar
    26    25    18   ar
    27    16     3   ar
    28    25    21   ar
    29    15     6   ar
    30    13     8   ar
    31     1    26    1
    32     2    27    1
    33     4    28    1
    34     5    29    1
    35     7    30    1
    36     9    31    1
    37    12    32    1
    38    14    33    1
    39    17    34    1
    40    20    35    1
    41    23    36    1
    42    24    37    1
