@<TRIPOS>MOLECULE
*****
 32 36 0 0 0
SMALL
GASTEIGER

@<TRIPOS>ATOM
      1 C          -4.0323    1.6841   -0.5067 C.3     1  UNL1       -0.0148
      2 C          -4.5108    0.3712    0.0222 C.2     1  UNL1       -0.0725
      3 C          -3.4551   -0.4181    0.2594 C.ar    1  UNL1       -0.0212
      4 C          -3.4756   -1.7907    0.6780 C.ar    1  UNL1       -0.0537
      5 C          -2.3139   -2.4582    0.7536 C.ar    1  UNL1       -0.0520
      6 C          -1.0200   -1.7942    0.4668 C.ar    1  UNL1        0.0015
      7 C           0.1428   -2.5355    0.5437 C.ar    1  UNL1        0.0361
      8 N           1.3747   -2.0285    0.3503 N.ar    1  UNL1       -0.2521
      9 C           1.5327   -0.7067    0.1151 C.ar    1  UNL1        0.1004
     10 C           2.8349   -0.2016   -0.0316 C.ar    1  UNL1        0.1150
     11 N           3.9353   -1.0091    0.0137 N.ar    1  UNL1       -0.2513
     12 C           5.1583   -0.4640   -0.1360 C.ar    1  UNL1        0.0285
     13 C           5.3625    0.8822   -0.3330 C.ar    1  UNL1       -0.0415
     14 C           4.2420    1.7036   -0.3743 C.ar    1  UNL1       -0.0327
     15 C           2.9644    1.1852   -0.2249 C.ar    1  UNL1        0.0913
     16 N           1.9322    2.0330   -0.2608 N.ar    1  UNL1       -0.2527
     17 C           0.6989    1.5059   -0.1228 C.ar    1  UNL1        0.0381
     18 C           0.4074    0.1485    0.0320 C.ar    1  UNL1        0.0289
     19 C          -0.9021   -0.4175    0.1451 C.ar    1  UNL1        0.0017
     20 C          -2.2048    0.2888   -0.0390 C.ar    1  UNL1       -0.0134
     21 C          -2.5399    1.4965   -0.5305 C.2     1  UNL1       -0.0719
     22 H          -4.3162    2.5084    0.1538 H       1  UNL1        0.0350
     23 H          -4.4193    1.8672   -1.5135 H       1  UNL1        0.0350
     24 H          -5.5492    0.1013    0.1382 H       1  UNL1        0.0581
     25 H          -4.4220   -2.2743    0.8928 H       1  UNL1        0.0624
     26 H          -2.3024   -3.5034    1.0468 H       1  UNL1        0.0624
     27 H           0.1300   -3.5981    0.7712 H       1  UNL1        0.0836
     28 H           5.9878   -1.1636   -0.0908 H       1  UNL1        0.0830
     29 H           6.3612    1.2866   -0.4490 H       1  UNL1        0.0633
     30 H           4.3648    2.7735   -0.5236 H       1  UNL1        0.0640
     31 H          -0.0677    2.2680   -0.1019 H       1  UNL1        0.0836
     32 H          -1.8986    2.2594   -0.9351 H       1  UNL1        0.0581
@<TRIPOS>BOND
     1     1     2    1
     2     2     3    2
     3     3     4   ar
     4     4     5   ar
     5     5     6   ar
     6     6     7   ar
     7     7     8   ar
     8     8     9   ar
     9     9    10   ar
    10    10    11   ar
    11    11    12   ar
    12    12    13   ar
    13    13    14   ar
    14    14    15   ar
    15    15    16   ar
    16    16    17   ar
    17    17    18   ar
    18    18    19   ar
    19    19    20   ar
    20    20    21    2
    21    21     1    1
    22    20     3   ar
    23    19     6   ar
    24    18     9   ar
    25    15    10   ar
    26     1    22    1
    27     1    23    1
    28     2    24    1
    29     4    25    1
    30     5    26    1
    31     7    27    1
    32    12    28    1
    33    13    29    1
    34    14    30    1
    35    17    31    1
    36    21    32    1
