@<TRIPOS>MOLECULE
*****
 43 49 0 0 0
SMALL
GASTEIGER

@<TRIPOS>ATOM
      1 C           5.4057    0.6374    0.0624 C.3     1  UNL1       -0.0148
      2 C           5.5876   -0.8228   -0.2210 C.2     1  UNL1       -0.0725
      3 C           4.3851   -1.3969   -0.3567 C.ar    1  UNL1       -0.0211
      4 C           4.0820   -2.7962   -0.4833 C.ar    1  UNL1       -0.0523
      5 C           2.7952   -3.1781   -0.4107 C.ar    1  UNL1       -0.0351
      6 C           1.6929   -2.1978   -0.2762 C.ar    1  UNL1        0.0722
      7 N           0.4715   -2.7520   -0.1760 N.ar    1  UNL1       -0.2543
      8 C          -0.5822   -1.9025   -0.0693 C.ar    1  UNL1        0.0366
      9 C          -0.5666   -0.5007   -0.1003 C.ar    1  UNL1        0.0098
     10 C           0.7472    0.0177   -0.4064 C.ar    1  UNL1        0.0046
     11 C           0.6142    1.3570   -0.8536 C.ar    1  UNL1        0.0288
     12 C           1.5366    2.1219   -1.5272 C.ar    1  UNL1        0.1000
     13 O           1.0043    3.3333   -1.8571 O.2     1  UNL1       -0.4698
     14 C          -0.2977    3.3188   -1.4586 C.ar    1  UNL1        0.1000
     15 C          -0.5937    2.1076   -0.8833 C.ar    1  UNL1        0.0282
     16 C          -1.8474    1.6633   -0.4282 C.ar    1  UNL1       -0.0059
     17 C          -3.0130    2.4513   -0.4894 C.ar    1  UNL1       -0.0527
     18 C          -4.2088    1.9396   -0.0202 C.ar    1  UNL1       -0.0534
     19 C          -4.2477    0.6895    0.5934 C.ar    1  UNL1       -0.0173
     20 C          -5.4703    0.2589    1.1370 C.ar    1  UNL1       -0.0540
     21 C          -5.5617   -0.9274    1.8546 C.ar    1  UNL1       -0.0612
     22 C          -4.4194   -1.6781    2.0631 C.ar    1  UNL1       -0.0611
     23 C          -3.2017   -1.2635    1.5106 C.ar    1  UNL1       -0.0534
     24 C          -3.0669   -0.1063    0.6986 C.ar    1  UNL1       -0.0095
     25 C          -1.8211    0.3207    0.0666 C.ar    1  UNL1       -0.0003
     26 C           1.9111   -0.8087   -0.3267 C.ar    1  UNL1        0.0162
     27 C           3.3287   -0.3902   -0.2490 C.ar    1  UNL1       -0.0120
     28 C           3.9091    0.7796    0.0703 C.2     1  UNL1       -0.0719
     29 H           5.8586    1.2558   -0.7179 H       1  UNL1        0.0350
     30 H           5.8281    0.9022    1.0362 H       1  UNL1        0.0350
     31 H           6.5409   -1.3285   -0.2284 H       1  UNL1        0.0581
     32 H           4.8833   -3.5188   -0.5836 H       1  UNL1        0.0624
     33 H           2.5108   -4.2228   -0.4672 H       1  UNL1        0.0639
     34 H          -1.5229   -2.4470   -0.0401 H       1  UNL1        0.0836
     35 H           2.5496    1.9741   -1.8711 H       1  UNL1        0.1036
     36 H          -0.8565    4.2148   -1.6878 H       1  UNL1        0.1036
     37 H          -3.0002    3.4520   -0.9110 H       1  UNL1        0.0624
     38 H          -5.1040    2.5540   -0.0924 H       1  UNL1        0.0624
     39 H          -6.3684    0.8639    1.0249 H       1  UNL1        0.0624
     40 H          -6.5114   -1.2405    2.2789 H       1  UNL1        0.0618
     41 H          -4.4609   -2.5800    2.6687 H       1  UNL1        0.0618
     42 H          -2.3334   -1.8542    1.7898 H       1  UNL1        0.0624
     43 H           3.4131    1.6994    0.3376 H       1  UNL1        0.0581
@<TRIPOS>BOND
     1     1     2    1
     2     2     3    2
     3     3     4   ar
     4     4     5   ar
     5     5     6   ar
     6     6     7   ar
     7     7     8   ar
     8     8     9   ar
     9     9    10   ar
    10    10    11   ar
    11    11    12   ar
    12    12    13   ar
    13    13    14   ar
    14    14    15   ar
    15    15    16   ar
    16    16    17   ar
    17    17    18   ar
    18    18    19   ar
    19    19    20   ar
    20    20    21   ar
    21    21    22   ar
    22    22    23   ar
    23    23    24   ar
    24    24    25   ar
    25    10    26   ar
    26    26    27   ar
    27    27    28    2
    28    28     1    1
    29    27     3   ar
    30    26     6   ar
    31    25     9   ar
    32    15    11   ar
    33    25    16   ar
    34    24    19   ar
    35     1    29    1
    36     1    30    1
    37     2    31    1
    38     4    32    1
    39     5    33    1
    40     8    34    1
    41    12    35    1
    42    14    36    1
    43    17    37    1
    44    18    38    1
    45    20    39    1
    46    21    40    1
    47    22    41    1
    48    23    42    1
    49    28    43    1
