@<TRIPOS>MOLECULE
*****
 48 54 0 0 0
SMALL
GASTEIGER

@<TRIPOS>ATOM
      1 C          -6.8123   -1.7831    0.6710 C.3     1  UNL1       -0.0148
      2 C          -7.4985   -0.4653    0.4512 C.2     1  UNL1       -0.0725
      3 C          -6.6107    0.4160   -0.0267 C.ar    1  UNL1       -0.0212
      4 C          -6.7881    1.8034   -0.3662 C.ar    1  UNL1       -0.0543
      5 C          -5.7106    2.4810   -0.8056 C.ar    1  UNL1       -0.0606
      6 C          -4.3958    1.8465   -0.9515 C.ar    1  UNL1       -0.0537
      7 C          -4.1536    0.5390   -0.6722 C.ar    1  UNL1       -0.0141
      8 C          -2.8188    0.0026   -0.8555 C.2     1  UNL1       -0.0353
      9 C          -1.5656    0.6876   -0.3625 C.3     1  UNL1       -0.0012
     10 C          -0.4770   -0.2802   -0.7795 C.2     1  UNL1       -0.0338
     11 C          -1.0514   -1.3142   -1.4233 C.2     1  UNL1       -0.0574
     12 C          -2.4805   -1.1415   -1.4697 C.2     1  UNL1       -0.0574
     13 C           0.9551   -0.0919   -0.5110 C.ar    1  UNL1        0.0067
     14 C           1.9267   -1.0816   -0.7986 C.ar    1  UNL1       -0.0516
     15 C           3.3117   -0.9338   -0.5520 C.ar    1  UNL1       -0.0508
     16 C           3.8749    0.2280    0.0049 C.ar    1  UNL1        0.0175
     17 C           5.2994    0.3471    0.2557 C.ar    1  UNL1        0.0306
     18 S           6.2518    1.6043   -0.4870 S.2     1  UNL1       -0.0939
     19 C           7.7399    1.0629    0.2289 C.ar    1  UNL1        0.0002
     20 C           7.4675   -0.0317    0.9664 C.ar    1  UNL1        0.0542
     21 N           8.3532   -0.7774    1.6873 N.ar    1  UNL1       -0.3602
     22 C           7.5133   -1.7560    2.2173 C.ar    1  UNL1        0.0028
     23 C           6.1744   -1.5697    1.8095 C.ar    1  UNL1       -0.0356
     24 C           6.1476   -0.4210    0.9764 C.ar    1  UNL1        0.0145
     25 C           2.9657    1.2692    0.3422 C.ar    1  UNL1        0.1086
     26 N           3.2647    2.4495    0.9150 N.ar    1  UNL1       -0.1901
     27 S           1.8501    3.2835    1.0837 S.2     1  UNL1        0.1165
     28 N           0.7759    2.1968    0.4554 N.ar    1  UNL1       -0.1902
     29 C           1.4713    1.1084    0.0760 C.ar    1  UNL1        0.1079
     30 C          -5.3030   -0.2211   -0.1715 C.ar    1  UNL1       -0.0144
     31 C          -5.4011   -1.4957    0.2399 C.2     1  UNL1       -0.0720
     32 H          -7.2598   -2.5684    0.0547 H       1  UNL1        0.0350
     33 H          -6.8493   -2.0745    1.7248 H       1  UNL1        0.0350
     34 H          -8.5385   -0.2727    0.6627 H       1  UNL1        0.0581
     35 H          -7.7588    2.2714   -0.2593 H       1  UNL1        0.0624
     36 H          -5.7887    3.5304   -1.0724 H       1  UNL1        0.0618
     37 H          -3.6103    2.4954   -1.3297 H       1  UNL1        0.0624
     38 H          -1.5991    0.8080    0.7257 H       1  UNL1        0.0362
     39 H          -1.4387    1.6574   -0.8545 H       1  UNL1        0.0362
     40 H          -0.5656   -2.1745   -1.8570 H       1  UNL1        0.0621
     41 H          -3.1562   -1.8422   -1.9369 H       1  UNL1        0.0621
     42 H           1.6117   -2.0294   -1.2353 H       1  UNL1        0.0624
     43 H           3.9698   -1.7630   -0.8168 H       1  UNL1        0.0625
     44 H           8.6808    1.5668    0.0605 H       1  UNL1        0.0714
     45 H           9.3499   -0.6336    1.7933 H       1  UNL1        0.1653
     46 H           7.9381   -2.5185    2.8578 H       1  UNL1        0.0807
     47 H           5.3404   -2.1956    2.0978 H       1  UNL1        0.0639
     48 H          -4.6017   -2.2189    0.2742 H       1  UNL1        0.0581
@<TRIPOS>BOND
     1     1     2    1
     2     2     3    2
     3     3     4   ar
     4     4     5   ar
     5     5     6   ar
     6     6     7   ar
     7     7     8    1
     8     8     9    1
     9     9    10    1
    10    10    11    2
    11    11    12    1
    12    10    13    1
    13    13    14   ar
    14    14    15   ar
    15    15    16   ar
    16    16    17    1
    17    17    18   ar
    18    18    19   ar
    19    19    20   ar
    20    20    21   ar
    21    21    22   ar
    22    22    23   ar
    23    23    24   ar
    24    16    25   ar
    25    25    26   ar
    26    26    27   ar
    27    27    28   ar
    28    28    29   ar
    29     7    30   ar
    30    30    31    2
    31    31     1    1
    32    30     3   ar
    33    12     8    2
    34    29    13   ar
    35    24    17   ar
    36    29    25   ar
    37    24    20   ar
    38     1    32    1
    39     1    33    1
    40     2    34    1
    41     4    35    1
    42     5    36    1
    43     6    37    1
    44     9    38    1
    45     9    39    1
    46    11    40    1
    47    12    41    1
    48    14    42    1
    49    15    43    1
    50    19    44    1
    51    21    45    1
    52    22    46    1
    53    23    47    1
    54    31    48    1
