@<TRIPOS>MOLECULE
*****
 50 55 0 0 0
SMALL
GASTEIGER

@<TRIPOS>ATOM
      1 C          -5.8912    2.6074    1.0811 C.3     1  UNL1        0.0000
      2 C          -6.9671    1.5812    0.8537 C.2     1  UNL1        0.0000
      3 C          -6.3964    0.4074    0.5537 C.ar    1  UNL1        0.0000
      4 C          -7.0005   -0.8679    0.2602 C.ar    1  UNL1        0.0000
      5 C          -6.1819   -1.9056   -0.0057 C.ar    1  UNL1        0.0000
      6 C          -4.7203   -1.7676   -0.0042 C.ar    1  UNL1        0.0000
      7 C          -4.0936   -0.5932    0.2543 C.ar    1  UNL1        0.0000
      8 C          -2.6345   -0.5642    0.2399 C.ar    1  UNL1        0.0000
      9 C          -1.8017   -1.0975    1.2516 C.ar    1  UNL1        0.0000
     10 C          -0.3646   -1.0458    1.2161 C.ar    1  UNL1        0.0000
     11 C           0.3977   -0.4518    0.1719 C.ar    1  UNL1        0.0000
     12 C           1.8540   -0.3986    0.1480 C.ar    1  UNL1        0.0000
     13 C           2.6146   -1.5766    0.1652 C.ar    1  UNL1        0.0000
     14 C           4.0131   -1.5318    0.1551 C.ar    1  UNL1        0.0000
     15 C           4.6861   -0.3055    0.1261 C.ar    1  UNL1        0.0000
     16 C           3.9353    0.8746    0.1242 C.ar    1  UNL1        0.0000
     17 C           2.5367    0.8266    0.1344 C.ar    1  UNL1        0.0000
     18 C           6.1439   -0.2739    0.1199 C.2     1  UNL1        0.0000
     19 SI          7.1395    0.4727   -1.3048 Si      1  UNL1        0.0000
     20 C           8.6930   -0.0054   -0.3536 C.2     1  UNL1        0.0000
     21 C           8.3870   -0.6135    0.8069 C.2     1  UNL1        0.0000
     22 C           6.9644   -0.7674    1.0712 C.2     1  UNL1        0.0000
     23 C          -0.4490    0.0666   -0.8196 C.ar    1  UNL1        0.0000
     24 C          -0.0875    0.6798   -1.9959 C.ar    1  UNL1        0.0000
     25 N          -1.2476    1.0102   -2.6625 N.ar    1  UNL1        0.0000
     26 C          -2.3460    0.6071   -1.9366 C.ar    1  UNL1        0.0000
     27 C          -1.8811    0.0139   -0.7874 C.ar    1  UNL1        0.0000
     28 C          -4.9434    0.5512    0.5539 C.ar    1  UNL1        0.0000
     29 C          -4.6303    1.8194    0.8598 C.2     1  UNL1        0.0000
     30 H          -5.9340    3.0025    2.1003 H       1  UNL1        0.0000
     31 H          -5.9729    3.4284    0.3627 H       1  UNL1        0.0000
     32 H          -8.0253    1.7760    0.9281 H       1  UNL1        0.0000
     33 H          -8.0786   -0.9707    0.2589 H       1  UNL1        0.0000
     34 H          -6.5880   -2.8863   -0.2328 H       1  UNL1        0.0000
     35 H          -4.1540   -2.6667   -0.2337 H       1  UNL1        0.0000
     36 H          -2.2705   -1.5700    2.1154 H       1  UNL1        0.0000
     37 H           0.1702   -1.4838    2.0605 H       1  UNL1        0.0000
     38 H           2.1188   -2.5452    0.1767 H       1  UNL1        0.0000
     39 H           4.5714   -2.4654    0.1620 H       1  UNL1        0.0000
     40 H           4.4258    1.8453    0.1316 H       1  UNL1        0.0000
     41 H           1.9766    1.7599    0.1437 H       1  UNL1        0.0000
     42 H           7.0137   -0.2902   -2.5720 H       1  UNL1        0.0000
     43 H           6.9837    1.9463   -1.4058 H       1  UNL1        0.0000
     44 H           9.6781    0.2061   -0.7378 H       1  UNL1        0.0000
     45 H           9.1253   -0.9726    1.5133 H       1  UNL1        0.0000
     46 H           6.6215   -1.2452    1.9811 H       1  UNL1        0.0000
     47 H           0.8767    0.9078   -2.4297 H       1  UNL1        0.0000
     48 H          -1.2870    1.4714   -3.5620 H       1  UNL1        0.0000
     49 H          -3.3471    0.7753   -2.3111 H       1  UNL1        0.0000
     50 H          -3.6331    2.2250    0.9368 H       1  UNL1        0.0000
@<TRIPOS>BOND
     1     1     2    1
     2     2     3    2
     3     3     4   ar
     4     4     5   ar
     5     5     6   ar
     6     6     7   ar
     7     7     8    1
     8     8     9   ar
     9     9    10   ar
    10    10    11   ar
    11    11    12    1
    12    12    13   ar
    13    13    14   ar
    14    14    15   ar
    15    15    16   ar
    16    16    17   ar
    17    15    18    1
    18    18    19    1
    19    19    20    1
    20    20    21    2
    21    21    22    1
    22    11    23   ar
    23    23    24   ar
    24    24    25   ar
    25    25    26   ar
    26    26    27   ar
    27     7    28   ar
    28    28    29    2
    29    29     1    1
    30    28     3   ar
    31    27     8   ar
    32    17    12   ar
    33    22    18    2
    34    27    23   ar
    35     1    30    1
    36     1    31    1
    37     2    32    1
    38     4    33    1
    39     5    34    1
    40     6    35    1
    41     9    36    1
    42    10    37    1
    43    13    38    1
    44    14    39    1
    45    16    40    1
    46    17    41    1
    47    19    42    1
    48    19    43    1
    49    20    44    1
    50    21    45    1
    51    22    46    1
    52    24    47    1
    53    25    48    1
    54    26    49    1
    55    29    50    1
