@<TRIPOS>MOLECULE
*****
 49 54 0 0 0
SMALL
GASTEIGER

@<TRIPOS>ATOM
      1 C          -6.1926    2.2071    0.4886 C.3     1  UNL1       -0.0148
      2 C          -7.1749    1.1258    0.1320 C.2     1  UNL1       -0.0725
      3 C          -6.5057   -0.0008   -0.1442 C.ar    1  UNL1       -0.0212
      4 C          -6.9991   -1.3000   -0.5258 C.ar    1  UNL1       -0.0543
      5 C          -6.0962   -2.2780   -0.7395 C.ar    1  UNL1       -0.0606
      6 C          -4.6525   -2.0525   -0.5987 C.ar    1  UNL1       -0.0534
      7 C          -4.1269   -0.8513   -0.2524 C.ar    1  UNL1       -0.0098
      8 C          -2.6772   -0.7327   -0.1411 C.ar    1  UNL1       -0.0066
      9 C          -1.8839   -1.2964    0.8866 C.ar    1  UNL1       -0.0527
     10 C          -0.4530   -1.1505    0.9692 C.ar    1  UNL1       -0.0528
     11 C           0.3416   -0.4224    0.0399 C.ar    1  UNL1       -0.0071
     12 C           1.7873   -0.2713    0.1283 C.ar    1  UNL1       -0.0172
     13 C           2.3825    0.9919    0.2414 C.ar    1  UNL1       -0.0534
     14 C           3.7744    1.1313    0.3365 C.ar    1  UNL1       -0.0520
     15 C           4.6255    0.0134    0.3216 C.ar    1  UNL1        0.0004
     16 C           4.0171   -1.2500    0.2238 C.ar    1  UNL1       -0.0520
     17 C           2.6266   -1.3914    0.1288 C.ar    1  UNL1       -0.0534
     18 C           6.0962    0.1378    0.4160 C.ar    1  UNL1        0.0710
     19 C           6.8008    1.2311   -0.0910 C.ar    1  UNL1       -0.0357
     20 C           8.1884    1.2729    0.0391 C.ar    1  UNL1       -0.0583
     21 C           8.8446    0.2251    0.6687 C.ar    1  UNL1       -0.0436
     22 C           8.0823   -0.8279    1.1391 C.ar    1  UNL1        0.0283
     23 N           6.7376   -0.8946    1.0239 N.ar    1  UNL1       -0.2550
     24 C          -0.4678    0.1190   -0.9664 C.ar    1  UNL1        0.0281
     25 C          -0.0894    0.8502   -2.0639 C.ar    1  UNL1        0.1000
     26 O          -1.1901    1.1770   -2.8071 O.2     1  UNL1       -0.4698
     27 C          -2.2819    0.6364   -2.1860 C.ar    1  UNL1        0.1000
     28 C          -1.8885   -0.0262   -1.0516 C.ar    1  UNL1        0.0281
     29 C          -5.0709    0.2302   -0.0030 C.ar    1  UNL1       -0.0141
     30 C          -4.8687    1.5039    0.3671 C.2     1  UNL1       -0.0720
     31 H          -6.2584    3.0449   -0.2117 H       1  UNL1        0.0350
     32 H          -6.3552    2.5649    1.5095 H       1  UNL1        0.0350
     33 H          -8.2458    1.2535    0.1114 H       1  UNL1        0.0581
     34 H          -8.0640   -1.4673   -0.6307 H       1  UNL1        0.0624
     35 H          -6.4182   -3.2737   -1.0285 H       1  UNL1        0.0618
     36 H          -4.0145   -2.9093   -0.8008 H       1  UNL1        0.0624
     37 H          -2.3793   -1.8701    1.6713 H       1  UNL1        0.0624
     38 H           0.0473   -1.6250    1.8159 H       1  UNL1        0.0624
     39 H           1.7626    1.8862    0.2740 H       1  UNL1        0.0624
     40 H           4.1799    2.1345    0.4468 H       1  UNL1        0.0624
     41 H           4.6357   -2.1468    0.2185 H       1  UNL1        0.0624
     42 H           2.2071   -2.3923    0.0474 H       1  UNL1        0.0624
     43 H           6.2903    2.0414   -0.6002 H       1  UNL1        0.0639
     44 H           8.7495    2.1163   -0.3529 H       1  UNL1        0.0619
     45 H           9.9221    0.2261    0.7866 H       1  UNL1        0.0633
     46 H           8.5447   -1.6752    1.6372 H       1  UNL1        0.0830
     47 H           0.8538    1.2052   -2.4545 H       1  UNL1        0.1036
     48 H          -3.2300    0.8100   -2.6757 H       1  UNL1        0.1036
     49 H          -3.9132    1.9696    0.5537 H       1  UNL1        0.0581
@<TRIPOS>BOND
     1     1     2    1
     2     2     3    2
     3     3     4   ar
     4     4     5   ar
     5     5     6   ar
     6     6     7   ar
     7     7     8    1
     8     8     9   ar
     9     9    10   ar
    10    10    11   ar
    11    11    12    1
    12    12    13   ar
    13    13    14   ar
    14    14    15   ar
    15    15    16   ar
    16    16    17   ar
    17    15    18    1
    18    18    19   ar
    19    19    20   ar
    20    20    21   ar
    21    21    22   ar
    22    22    23   ar
    23    11    24   ar
    24    24    25   ar
    25    25    26   ar
    26    26    27   ar
    27    27    28   ar
    28     7    29   ar
    29    29    30    2
    30    30     1    1
    31    29     3   ar
    32    28     8   ar
    33    17    12   ar
    34    23    18   ar
    35    28    24   ar
    36     1    31    1
    37     1    32    1
    38     2    33    1
    39     4    34    1
    40     5    35    1
    41     6    36    1
    42     9    37    1
    43    10    38    1
    44    13    39    1
    45    14    40    1
    46    16    41    1
    47    17    42    1
    48    19    43    1
    49    20    44    1
    50    21    45    1
    51    22    46    1
    52    25    47    1
    53    27    48    1
    54    30    49    1
