@<TRIPOS>MOLECULE
*****
 50 55 0 0 0
SMALL
GASTEIGER

@<TRIPOS>ATOM
      1 C          -5.6795    2.6164   -1.3743 C.3     1  UNL1        0.0000
      2 C          -6.7759    1.5985   -1.2205 C.2     1  UNL1        0.0000
      3 C          -6.2427    0.4358   -0.8196 C.ar    1  UNL1        0.0000
      4 C          -6.8809   -0.8236   -0.5306 C.ar    1  UNL1        0.0000
      5 C          -6.0984   -1.8485   -0.1346 C.ar    1  UNL1        0.0000
      6 C          -4.6433   -1.7129   -0.0009 C.ar    1  UNL1        0.0000
      7 C          -3.9759   -0.5571   -0.2562 C.ar    1  UNL1        0.0000
      8 C          -2.5183   -0.5147   -0.1050 C.ar    1  UNL1        0.0000
      9 C          -1.7488   -0.5152   -1.2201 C.ar    1  UNL1        0.0000
     10 C          -0.2897   -0.4682   -1.1928 C.ar    1  UNL1        0.0000
     11 C           0.4242   -0.4361   -0.0446 C.ar    1  UNL1        0.0000
     12 C           1.8907   -0.3512   -0.1467 C.ar    1  UNL1        0.0000
     13 C           2.6546   -1.3938   -0.6669 C.ar    1  UNL1        0.0000
     14 C           4.0418   -1.2577   -0.7539 C.ar    1  UNL1        0.0000
     15 C           4.6555   -0.0868   -0.3048 C.ar    1  UNL1        0.0000
     16 N           3.9214    0.9376    0.2146 N.ar    1  UNL1        0.0000
     17 C           2.5749    0.7859    0.2732 C.ar    1  UNL1        0.0000
     18 C           6.1244    0.1115   -0.3728 C.ar    1  UNL1        0.0000
     19 C           6.7440    1.2506    0.1463 C.ar    1  UNL1        0.0000
     20 C           8.1278    1.3865    0.0483 C.ar    1  UNL1        0.0000
     21 C           8.8680    0.3879   -0.5658 C.ar    1  UNL1        0.0000
     22 C           8.1906   -0.7098   -1.0597 C.ar    1  UNL1        0.0000
     23 N           6.8511   -0.8720   -0.9773 N.ar    1  UNL1        0.0000
     24 C          -0.3263   -0.4495    1.2140 C.ar    1  UNL1        0.0000
     25 C           0.2043   -0.4422    2.4545 C.2     1  UNL1        0.0000
     26 SI         -1.1291   -0.4381    3.7637 Si      1  UNL1        0.0000
     27 C          -2.3978   -0.4617    2.3980 C.2     1  UNL1        0.0000
     28 C          -1.8133   -0.4754    1.1825 C.ar    1  UNL1        0.0000
     29 C          -4.7962    0.5770   -0.6819 C.ar    1  UNL1        0.0000
     30 C          -4.4504    1.8361   -0.9955 C.2     1  UNL1        0.0000
     31 H          -5.8312    3.4645   -0.6988 H       1  UNL1        0.0000
     32 H          -5.6162    2.9731   -2.4075 H       1  UNL1        0.0000
     33 H          -7.8213    1.7927   -1.4042 H       1  UNL1        0.0000
     34 H          -7.9547   -0.9242   -0.6303 H       1  UNL1        0.0000
     35 H          -6.5305   -2.8179    0.0972 H       1  UNL1        0.0000
     36 H          -4.1069   -2.6046    0.3168 H       1  UNL1        0.0000
     37 H          -2.2054   -0.5456   -2.2064 H       1  UNL1        0.0000
     38 H           0.2002   -0.4445   -2.1630 H       1  UNL1        0.0000
     39 H           2.1830   -2.3103   -1.0079 H       1  UNL1        0.0000
     40 H           4.6367   -2.0656   -1.1699 H       1  UNL1        0.0000
     41 H           2.0416    1.6379    0.6869 H       1  UNL1        0.0000
     42 H           6.1546    2.0293    0.6206 H       1  UNL1        0.0000
     43 H           8.6165    2.2699    0.4465 H       1  UNL1        0.0000
     44 H           9.9447    0.4673   -0.6620 H       1  UNL1        0.0000
     45 H           8.7230   -1.5137   -1.5585 H       1  UNL1        0.0000
     46 H           1.2473   -0.4350    2.7276 H       1  UNL1        0.0000
     47 H          -1.1489    0.8265    4.5385 H       1  UNL1        0.0000
     48 H          -1.1343   -1.6824    4.5694 H       1  UNL1        0.0000
     49 H          -3.4542   -0.4694    2.6153 H       1  UNL1        0.0000
     50 H          -3.4508    2.2427   -0.9809 H       1  UNL1        0.0000
@<TRIPOS>BOND
     1     1     2    1
     2     2     3    2
     3     3     4   ar
     4     4     5   ar
     5     5     6   ar
     6     6     7   ar
     7     7     8    1
     8     8     9   ar
     9     9    10   ar
    10    10    11   ar
    11    11    12    1
    12    12    13   ar
    13    13    14   ar
    14    14    15   ar
    15    15    16   ar
    16    16    17   ar
    17    15    18    1
    18    18    19   ar
    19    19    20   ar
    20    20    21   ar
    21    21    22   ar
    22    22    23   ar
    23    11    24   ar
    24    24    25    2
    25    25    26    1
    26    26    27    1
    27    27    28    2
    28     7    29   ar
    29    29    30    2
    30    30     1    1
    31    29     3   ar
    32    28     8   ar
    33    17    12   ar
    34    23    18   ar
    35    28    24   ar
    36     1    31    1
    37     1    32    1
    38     2    33    1
    39     4    34    1
    40     5    35    1
    41     6    36    1
    42     9    37    1
    43    10    38    1
    44    13    39    1
    45    14    40    1
    46    17    41    1
    47    19    42    1
    48    20    43    1
    49    21    44    1
    50    22    45    1
    51    25    46    1
    52    26    47    1
    53    26    48    1
    54    27    49    1
    55    30    50    1
