@<TRIPOS>MOLECULE
*****
 42 48 0 0 0
SMALL
GASTEIGER

@<TRIPOS>ATOM
      1 SI          2.0856    1.4655    0.2034 Si      1  UNL1        0.0000
      2 C           3.7263    0.5261    0.0549 C.2     1  UNL1        0.0000
      3 C           3.5224   -0.7956   -0.1389 C.2     1  UNL1        0.0000
      4 C           2.1102   -1.1788   -0.1870 C.ar    1  UNL1        0.0000
      5 C           1.1186   -0.1602   -0.0306 C.ar    1  UNL1        0.0000
      6 C          -0.3082   -0.3747   -0.0536 C.ar    1  UNL1        0.0000
      7 C          -1.2375    0.6699    0.1063 C.ar    1  UNL1        0.0000
      8 C          -2.6345    0.4292    0.0793 C.ar    1  UNL1        0.0000
      9 C          -3.6666    1.3873    0.2271 C.ar    1  UNL1        0.0000
     10 C          -3.5428    2.7414    0.4262 C.ar    1  UNL1        0.0000
     11 N          -4.8191    3.2610    0.5108 N.ar    1  UNL1        0.0000
     12 C          -5.7544    2.2578    0.3685 C.ar    1  UNL1        0.0000
     13 C          -5.0595    1.0899    0.1918 C.ar    1  UNL1        0.0000
     14 C          -5.6175   -0.1648    0.0100 C.ar    1  UNL1        0.0000
     15 C          -4.6009   -1.1397   -0.1402 C.ar    1  UNL1        0.0000
     16 C          -3.1762   -0.8783   -0.1103 C.ar    1  UNL1        0.0000
     17 C          -2.2574   -1.9203   -0.2698 C.ar    1  UNL1        0.0000
     18 C          -0.8523   -1.6918   -0.2447 C.ar    1  UNL1        0.0000
     19 C           0.1477   -2.7054   -0.4004 C.ar    1  UNL1        0.0000
     20 C          -0.1190   -4.0422   -0.5960 C.ar    1  UNL1        0.0000
     21 S           1.3171   -4.9739   -0.7423 S.2     1  UNL1        0.0000
     22 C           2.3173   -3.5934   -0.5446 C.ar    1  UNL1        0.0000
     23 C           1.5733   -2.4507   -0.3714 C.ar    1  UNL1        0.0000
     24 C           5.0213    1.1193    0.1347 C.ar    1  UNL1        0.0000
     25 C           6.2791    0.5277    0.0395 C.ar    1  UNL1        0.0000
     26 N           7.3816    1.3528    0.1548 N.ar    1  UNL1        0.0000
     27 C           6.9728    2.5843    0.3395 C.ar    1  UNL1        0.0000
     28 S           5.2820    2.8177    0.3844 S.2     1  UNL1        0.0000
     29 H           1.8717    2.0428    1.5560 H       1  UNL1        0.0000
     30 H           1.8568    2.4084   -0.9222 H       1  UNL1        0.0000
     31 H           4.3004   -1.5369   -0.2530 H       1  UNL1        0.0000
     32 H          -0.9057    1.6926    0.2552 H       1  UNL1        0.0000
     33 H          -2.6839    3.3913    0.5169 H       1  UNL1        0.0000
     34 H          -5.0371    4.2382    0.6564 H       1  UNL1        0.0000
     35 H          -6.8123    2.4787    0.4076 H       1  UNL1        0.0000
     36 H          -6.6729   -0.3926   -0.0171 H       1  UNL1        0.0000
     37 H          -4.9298   -2.1700   -0.2902 H       1  UNL1        0.0000
     38 H          -2.6339   -2.9291   -0.4164 H       1  UNL1        0.0000
     39 H          -1.0705   -4.5486   -0.6650 H       1  UNL1        0.0000
     40 H           3.3907   -3.7145   -0.5690 H       1  UNL1        0.0000
     41 H           6.4539   -0.5298   -0.1180 H       1  UNL1        0.0000
     42 H           7.6631    3.4093    0.4574 H       1  UNL1        0.0000
@<TRIPOS>BOND
     1     1     2    1
     2     2     3    2
     3     3     4    1
     4     4     5   ar
     5     5     6   ar
     6     6     7   ar
     7     7     8   ar
     8     8     9   ar
     9     9    10   ar
    10    10    11   ar
    11    11    12   ar
    12    12    13   ar
    13    13    14   ar
    14    14    15   ar
    15    15    16   ar
    16    16    17   ar
    17    17    18   ar
    18    18    19   ar
    19    19    20   ar
    20    20    21   ar
    21    21    22   ar
    22    22    23   ar
    23     2    24    1
    24    24    25   ar
    25    25    26   ar
    26    26    27   ar
    27    27    28   ar
    28     5     1    1
    29    18     6   ar
    30    23    19   ar
    31    28    24   ar
    32    23     4   ar
    33    16     8   ar
    34    13     9   ar
    35     1    29    1
    36     1    30    1
    37     3    31    1
    38     7    32    1
    39    10    33    1
    40    11    34    1
    41    12    35    1
    42    14    36    1
    43    15    37    1
    44    17    38    1
    45    20    39    1
    46    22    40    1
    47    25    41    1
    48    27    42    1
