@<TRIPOS>MOLECULE
*****
 49 56 0 0 0
SMALL
GASTEIGER

@<TRIPOS>ATOM
      1 SI          0.1760    4.4495    1.8181 Si      1  UNL1        0.0000
      2 C           1.3461    3.1539    1.1790 C.2     1  UNL1        0.0000
      3 C           0.6915    2.0687    0.7116 C.ar    1  UNL1        0.0000
      4 C           1.3405    0.8670    0.1345 C.ar    1  UNL1        0.0000
      5 C           2.7278    0.8975   -0.2540 C.ar    1  UNL1        0.0000
      6 C           3.3823   -0.1156   -0.9934 C.ar    1  UNL1        0.0000
      7 C           4.7905   -0.0889   -1.3774 C.ar    1  UNL1        0.0000
      8 N           5.5975   -1.1328   -1.3728 N.ar    1  UNL1        0.0000
      9 C           6.8593   -0.7654   -1.7948 C.ar    1  UNL1        0.0000
     10 C           7.0105    0.5612   -2.1277 C.ar    1  UNL1        0.0000
     11 S           5.5256    1.3828   -1.9053 S.2     1  UNL1        0.0000
     12 C           2.4899   -1.1288   -1.3783 C.ar    1  UNL1        0.0000
     13 C           2.8262   -2.1683   -2.2179 C.ar    1  UNL1        0.0000
     14 S           1.4736   -3.1401   -2.6116 S.2     1  UNL1        0.0000
     15 C           0.4243   -2.1713   -1.6645 C.ar    1  UNL1        0.0000
     16 C           1.0903   -1.1776   -0.9776 C.ar    1  UNL1        0.0000
     17 C           0.4712   -0.2443   -0.1051 C.ar    1  UNL1        0.0000
     18 C          -0.9443   -0.2826    0.3749 C.ar    1  UNL1        0.0000
     19 C          -1.6336   -1.4974    0.7041 C.ar    1  UNL1        0.0000
     20 C          -0.9572   -2.6967    1.0494 C.ar    1  UNL1        0.0000
     21 C          -1.6279   -3.8888    1.3229 C.ar    1  UNL1        0.0000
     22 C          -3.0093   -3.9185    1.2781 C.ar    1  UNL1        0.0000
     23 C          -3.7113   -2.7488    0.9924 C.ar    1  UNL1        0.0000
     24 C          -3.0519   -1.5216    0.7305 C.ar    1  UNL1        0.0000
     25 C          -3.7412   -0.3151    0.4936 C.ar    1  UNL1        0.0000
     26 C          -5.2139   -0.1852    0.3501 C.2     1  UNL1        0.0000
     27 C          -5.6562    1.0661    0.1500 C.2     1  UNL1        0.0000
     28 SI         -4.2817    2.3120    0.1289 Si      1  UNL1        0.0000
     29 C          -3.0353    0.9211    0.4217 C.ar    1  UNL1        0.0000
     30 C          -1.6386    0.9528    0.5003 C.ar    1  UNL1        0.0000
     31 C          -0.7921    2.1444    0.8108 C.ar    1  UNL1        0.0000
     32 C          -1.2197    3.2820    1.4021 C.2     1  UNL1        0.0000
     33 H           0.3133    4.6744    3.2767 H       1  UNL1        0.0000
     34 H           0.1619    5.6697    0.9763 H       1  UNL1        0.0000
     35 H           2.4072    3.3301    1.2285 H       1  UNL1        0.0000
     36 H           3.3187    1.7698    0.0193 H       1  UNL1        0.0000
     37 H           7.6404   -1.5145   -1.8423 H       1  UNL1        0.0000
     38 H           7.8952    1.0706   -2.4808 H       1  UNL1        0.0000
     39 H           3.7852   -2.4065   -2.6581 H       1  UNL1        0.0000
     40 H          -0.6298   -2.4096   -1.6743 H       1  UNL1        0.0000
     41 H           0.1291   -2.7093    1.1285 H       1  UNL1        0.0000
     42 H          -1.0656   -4.7846    1.5725 H       1  UNL1        0.0000
     43 H          -3.5454   -4.8402    1.4868 H       1  UNL1        0.0000
     44 H          -4.7961   -2.8068    1.0039 H       1  UNL1        0.0000
     45 H          -5.8759   -1.0387    0.3850 H       1  UNL1        0.0000
     46 H          -6.6853    1.3611    0.0138 H       1  UNL1        0.0000
     47 H          -4.1364    2.9542   -1.2013 H       1  UNL1        0.0000
     48 H          -4.4188    3.2557    1.2678 H       1  UNL1        0.0000
     49 H          -2.2068    3.5533    1.7252 H       1  UNL1        0.0000
@<TRIPOS>BOND
     1     1     2    1
     2     2     3    2
     3     3     4   ar
     4     4     5   ar
     5     5     6   ar
     6     6     7    1
     7     7     8   ar
     8     8     9   ar
     9     9    10   ar
    10    10    11   ar
    11     6    12   ar
    12    12    13   ar
    13    13    14   ar
    14    14    15   ar
    15    15    16   ar
    16    16    17   ar
    17    17    18   ar
    18    18    19   ar
    19    19    20   ar
    20    20    21   ar
    21    21    22   ar
    22    22    23   ar
    23    23    24   ar
    24    24    25   ar
    25    25    26    1
    26    26    27    2
    27    27    28    1
    28    28    29    1
    29    29    30   ar
    30    30    31   ar
    31    31    32    2
    32    32     1    1
    33    31     3   ar
    34    17     4   ar
    35    30    18   ar
    36    11     7   ar
    37    16    12   ar
    38    24    19   ar
    39    29    25   ar
    40     1    33    1
    41     1    34    1
    42     2    35    1
    43     5    36    1
    44     9    37    1
    45    10    38    1
    46    13    39    1
    47    15    40    1
    48    20    41    1
    49    21    42    1
    50    22    43    1
    51    23    44    1
    52    26    45    1
    53    27    46    1
    54    28    47    1
    55    28    48    1
    56    32    49    1
