@<TRIPOS>MOLECULE
*****
 50 56 0 0 0
SMALL
GASTEIGER

@<TRIPOS>ATOM
      1 C          -6.1098   -2.7468    1.3063 C.3     1  UNL1       -0.0148
      2 C          -7.1560   -1.6683    1.3629 C.2     1  UNL1       -0.0725
      3 C          -6.5848   -0.4877    1.0893 C.ar    1  UNL1       -0.0212
      4 C          -7.1701    0.8269    1.0194 C.ar    1  UNL1       -0.0543
      5 C          -6.3586    1.8607    0.7248 C.ar    1  UNL1       -0.0606
      6 C          -4.9225    1.6802    0.4837 C.ar    1  UNL1       -0.0534
      7 C          -4.3136    0.4693    0.5183 C.ar    1  UNL1       -0.0098
      8 C          -2.8734    0.3891    0.2854 C.ar    1  UNL1       -0.0066
      9 C          -1.9146    0.0109    1.2545 C.ar    1  UNL1       -0.0527
     10 C          -0.4974   -0.0614    1.0048 C.ar    1  UNL1       -0.0527
     11 C           0.1240    0.2344   -0.2396 C.ar    1  UNL1       -0.0057
     12 C           1.5574    0.1515   -0.4884 C.ar    1  UNL1        0.0009
     13 C           2.0907   -0.5590   -1.5693 C.ar    1  UNL1       -0.0505
     14 C           3.4712   -0.6047   -1.7756 C.ar    1  UNL1       -0.0345
     15 C           4.3118    0.0440   -0.8807 C.ar    1  UNL1        0.0796
     16 N           3.8315    0.7015    0.2044 N.ar    1  UNL1       -0.2538
     17 C           2.4837    0.7486    0.3607 C.ar    1  UNL1        0.0360
     18 C           5.7681    0.0493   -1.0109 C.ar    1  UNL1        0.0613
     19 S           6.6163   -0.1807   -2.5136 S.2     1  UNL1       -0.0924
     20 C           8.1890   -0.0666   -1.7795 C.ar    1  UNL1       -0.0145
     21 C           8.0062    0.1577   -0.4621 C.ar    1  UNL1        0.0073
     22 C           8.7324    0.3304    0.7421 C.ar    1  UNL1       -0.0361
     23 C           7.7850    0.5019    1.7743 C.ar    1  UNL1        0.0028
     24 N           6.4810    0.4493    1.2827 N.ar    1  UNL1       -0.3597
     25 C           6.6970    0.2321   -0.0463 C.ar    1  UNL1        0.0629
     26 C          -0.8478    0.6100   -1.1789 C.ar    1  UNL1        0.0282
     27 C          -0.6712    1.0099   -2.4790 C.ar    1  UNL1        0.1000
     28 O          -1.8823    1.2764   -3.0564 O.2     1  UNL1       -0.4698
     29 C          -2.8441    1.0658   -2.1115 C.ar    1  UNL1        0.1000
     30 C          -2.2575    0.6799   -0.9325 C.ar    1  UNL1        0.0281
     31 C          -5.1583   -0.6738    0.8379 C.ar    1  UNL1       -0.0141
     32 C          -4.8640   -1.9777    0.9551 C.2     1  UNL1       -0.0720
     33 H          -6.0040   -3.2448    2.2772 H       1  UNL1        0.0350
     34 H          -6.3491   -3.4874    0.5337 H       1  UNL1        0.0350
     35 H          -8.1980   -1.8379    1.5880 H       1  UNL1        0.0581
     36 H          -8.2296    0.9607    1.1986 H       1  UNL1        0.0624
     37 H          -6.7524    2.8706    0.6594 H       1  UNL1        0.0618
     38 H          -4.3613    2.5860    0.2806 H       1  UNL1        0.0624
     39 H          -2.2633   -0.2422    2.2558 H       1  UNL1        0.0624
     40 H           0.1317   -0.3814    1.8371 H       1  UNL1        0.0624
     41 H           1.4379   -1.0889   -2.2642 H       1  UNL1        0.0625
     42 H           3.8630   -1.1581   -2.6261 H       1  UNL1        0.0639
     43 H           2.1575    1.3191    1.2272 H       1  UNL1        0.0836
     44 H           9.0940   -0.1747   -2.3565 H       1  UNL1        0.0700
     45 H           9.8064    0.3255    0.8769 H       1  UNL1        0.0639
     46 H           7.9427    0.6467    2.8376 H       1  UNL1        0.0807
     47 H           5.5755    0.5440    1.7338 H       1  UNL1        0.1654
     48 H           0.1835    1.1527   -3.1237 H       1  UNL1        0.1036
     49 H          -3.8614    1.2397   -2.4376 H       1  UNL1        0.1036
     50 H          -3.8927   -2.4274    0.8198 H       1  UNL1        0.0581
@<TRIPOS>BOND
     1     1     2    1
     2     2     3    2
     3     3     4   ar
     4     4     5   ar
     5     5     6   ar
     6     6     7   ar
     7     7     8    1
     8     8     9   ar
     9     9    10   ar
    10    10    11   ar
    11    11    12    1
    12    12    13   ar
    13    13    14   ar
    14    14    15   ar
    15    15    16   ar
    16    16    17   ar
    17    15    18    1
    18    18    19   ar
    19    19    20   ar
    20    20    21   ar
    21    21    22   ar
    22    22    23   ar
    23    23    24   ar
    24    24    25   ar
    25    11    26   ar
    26    26    27   ar
    27    27    28   ar
    28    28    29   ar
    29    29    30   ar
    30     7    31   ar
    31    31    32    2
    32    32     1    1
    33    31     3   ar
    34    30     8   ar
    35    17    12   ar
    36    25    18   ar
    37    30    26   ar
    38    25    21   ar
    39     1    33    1
    40     1    34    1
    41     2    35    1
    42     4    36    1
    43     5    37    1
    44     6    38    1
    45     9    39    1
    46    10    40    1
    47    13    41    1
    48    14    42    1
    49    17    43    1
    50    20    44    1
    51    22    45    1
    52    23    46    1
    53    24    47    1
    54    27    48    1
    55    29    49    1
    56    32    50    1
