@<TRIPOS>MOLECULE
*****
 46 51 0 0 0
SMALL
GASTEIGER

@<TRIPOS>ATOM
      1 C           5.8279    1.9036   -0.8341 C.3     1  UNL1       -0.0148
      2 C           6.6249    1.0192    0.0846 C.2     1  UNL1       -0.0725
      3 C           5.7997    0.1483    0.6795 C.ar    1  UNL1       -0.0212
      4 C           6.0843   -0.8870    1.6409 C.ar    1  UNL1       -0.0543
      5 C           5.0520   -1.6270    2.0927 C.ar    1  UNL1       -0.0606
      6 C           3.6747   -1.4085    1.6340 C.ar    1  UNL1       -0.0534
      7 C           3.3453   -0.4579    0.7247 C.ar    1  UNL1       -0.0098
      8 C           1.9460   -0.3238    0.3344 C.ar    1  UNL1       -0.0066
      9 C           0.9153    0.2002    1.1495 C.ar    1  UNL1       -0.0526
     10 C          -0.4551    0.3253    0.7275 C.ar    1  UNL1       -0.0498
     11 C          -0.9422   -0.0529   -0.5533 C.ar    1  UNL1        0.0280
     12 C          -2.3171    0.0946   -0.9728 C.ar    1  UNL1        0.1363
     13 C          -2.9653    0.2790   -2.1722 C.ar    1  UNL1       -0.0152
     14 C          -4.3478    0.3532   -1.8735 C.ar    1  UNL1       -0.0156
     15 C          -4.4996    0.2191   -0.4986 C.ar    1  UNL1        0.1320
     16 O          -3.2374    0.0687    0.0331 O.2     1  UNL1       -0.4551
     17 C          -5.6592    0.2222    0.3214 C.2     1  UNL1       -0.0014
     18 C          -5.7337    0.0609    1.8226 C.3     1  UNL1       -0.0057
     19 C          -7.2099    0.1524    2.0819 C.2     1  UNL1       -0.0796
     20 C          -7.8592    0.3341    0.9246 C.2     1  UNL1       -0.0650
     21 C          -6.9075    0.3770   -0.1570 C.2     1  UNL1       -0.0551
     22 C           0.0902   -0.5760   -1.3407 C.ar    1  UNL1        0.0311
     23 C           0.0392   -1.0989   -2.6085 C.ar    1  UNL1        0.1001
     24 O           1.2838   -1.5130   -2.9960 O.2     1  UNL1       -0.4698
     25 C           2.1403   -1.2707   -1.9598 C.ar    1  UNL1        0.1000
     26 C           1.4548   -0.7016   -0.9177 C.ar    1  UNL1        0.0282
     27 C           4.4321    0.3704    0.2189 C.ar    1  UNL1       -0.0141
     28 C           4.4267    1.3868   -0.6570 C.2     1  UNL1       -0.0720
     29 H           6.1592    1.7940   -1.8709 H       1  UNL1        0.0350
     30 H           5.9011    2.9524   -0.5315 H       1  UNL1        0.0350
     31 H           7.6909    1.0919    0.2325 H       1  UNL1        0.0581
     32 H           7.1002   -1.0495    1.9795 H       1  UNL1        0.0624
     33 H           5.2151   -2.4184    2.8177 H       1  UNL1        0.0618
     34 H           2.9209   -2.0665    2.0594 H       1  UNL1        0.0624
     35 H           1.1670    0.5378    2.1560 H       1  UNL1        0.0624
     36 H          -1.1605    0.7499    1.4446 H       1  UNL1        0.0625
     37 H          -2.5090    0.3682   -3.1469 H       1  UNL1        0.0656
     38 H          -5.1494    0.4961   -2.5846 H       1  UNL1        0.0655
     39 H          -5.3407   -0.9104    2.1389 H       1  UNL1        0.0357
     40 H          -5.1961    0.8639    2.3367 H       1  UNL1        0.0357
     41 H          -7.6659    0.0806    3.0576 H       1  UNL1        0.0575
     42 H          -8.9268    0.4347    0.7991 H       1  UNL1        0.0615
     43 H          -7.2013    0.5154   -1.1864 H       1  UNL1        0.0621
     44 H          -0.7384   -1.2609   -3.3403 H       1  UNL1        0.1036
     45 H           3.1681   -1.5632   -2.1255 H       1  UNL1        0.1036
     46 H           3.5625    1.7864   -1.1650 H       1  UNL1        0.0581
@<TRIPOS>BOND
     1     1     2    1
     2     2     3    2
     3     3     4   ar
     4     4     5   ar
     5     5     6   ar
     6     6     7   ar
     7     7     8    1
     8     8     9   ar
     9     9    10   ar
    10    10    11   ar
    11    11    12    1
    12    12    13   ar
    13    13    14   ar
    14    14    15   ar
    15    15    16   ar
    16    15    17    1
    17    17    18    1
    18    18    19    1
    19    19    20    2
    20    20    21    1
    21    11    22   ar
    22    22    23   ar
    23    23    24   ar
    24    24    25   ar
    25    25    26   ar
    26     7    27   ar
    27    27    28    2
    28    28     1    1
    29    27     3   ar
    30    26     8   ar
    31    16    12   ar
    32    21    17    2
    33    26    22   ar
    34     1    29    1
    35     1    30    1
    36     2    31    1
    37     4    32    1
    38     5    33    1
    39     6    34    1
    40     9    35    1
    41    10    36    1
    42    13    37    1
    43    14    38    1
    44    18    39    1
    45    18    40    1
    46    19    41    1
    47    20    42    1
    48    21    43    1
    49    23    44    1
    50    25    45    1
    51    28    46    1
