@<TRIPOS>MOLECULE
*****
 46 52 0 0 0
SMALL
GASTEIGER

@<TRIPOS>ATOM
      1 C           6.6073   -1.6633   -0.7512 C.3     1  UNL1       -0.0148
      2 C           7.4542   -0.5762   -0.1492 C.2     1  UNL1       -0.0725
      3 C           6.6573    0.3984    0.3073 C.ar    1  UNL1       -0.0212
      4 C           6.9938    1.6409    0.9551 C.ar    1  UNL1       -0.0543
      5 C           5.9829    2.4572    1.3144 C.ar    1  UNL1       -0.0606
      6 C           4.5769    2.1139    1.0692 C.ar    1  UNL1       -0.0534
      7 C           4.1968    0.9604    0.4649 C.ar    1  UNL1       -0.0090
      8 C           2.7641    0.6987    0.2756 C.ar    1  UNL1        0.0008
      9 C           2.0066    1.4110   -0.6512 C.ar    1  UNL1       -0.0505
     10 C           0.6501    1.1185   -0.8038 C.ar    1  UNL1       -0.0335
     11 C           0.0651    0.1095   -0.0331 C.ar    1  UNL1        0.0913
     12 N           0.7929   -0.5821    0.8794 N.ar    1  UNL1       -0.2528
     13 C           2.1088   -0.2822    1.0086 C.ar    1  UNL1        0.0360
     14 C          -1.3618   -0.2130   -0.1555 C.ar    1  UNL1        0.1172
     15 N          -2.2159    0.7675   -0.6324 N.ar    1  UNL1       -0.2505
     16 C          -3.5622    0.5531   -0.7598 C.ar    1  UNL1        0.0387
     17 C          -4.2606   -0.6150   -0.4661 C.ar    1  UNL1        0.0356
     18 C          -5.6942   -0.7489   -0.6146 C.ar    1  UNL1        0.0311
     19 S          -6.3675   -1.8246   -1.7853 S.2     1  UNL1       -0.0948
     20 C          -7.9922   -1.4043   -1.3887 C.ar    1  UNL1       -0.0094
     21 C          -8.0116   -0.4602   -0.4028 C.ar    1  UNL1        0.0269
     22 S          -9.3836    0.3701    0.4143 S.2     1  UNL1       -0.0961
     23 C          -8.1336    1.2012    1.3325 C.ar    1  UNL1       -0.0231
     24 C          -6.8097    0.8624    1.0269 C.ar    1  UNL1       -0.0459
     25 C          -6.7225   -0.1160    0.0016 C.ar    1  UNL1        0.0041
     26 C          -3.4441   -1.6646    0.0185 C.ar    1  UNL1        0.1117
     27 N          -3.8535   -2.8911    0.3929 N.ar    1  UNL1       -0.1900
     28 S          -2.5071   -3.7312    0.8574 S.2     1  UNL1        0.1166
     29 N          -1.3386   -2.5906    0.6140 N.ar    1  UNL1       -0.1885
     30 C          -1.9459   -1.4720    0.1753 C.ar    1  UNL1        0.1278
     31 C           5.2610    0.0517    0.0582 C.ar    1  UNL1       -0.0140
     32 C           5.2105   -1.1393   -0.5578 C.2     1  UNL1       -0.0720
     33 H           6.8337   -1.7954   -1.8133 H       1  UNL1        0.0350
     34 H           6.7485   -2.6105   -0.2224 H       1  UNL1        0.0350
     35 H           8.5318   -0.5939   -0.1037 H       1  UNL1        0.0581
     36 H           8.0308    1.8946    1.1379 H       1  UNL1        0.0624
     37 H           6.1858    3.4041    1.8055 H       1  UNL1        0.0618
     38 H           3.8433    2.8400    1.4112 H       1  UNL1        0.0624
     39 H           2.4624    2.1875   -1.2601 H       1  UNL1        0.0625
     40 H           0.0575    1.6754   -1.5244 H       1  UNL1        0.0640
     41 H           2.6375   -0.8774    1.7492 H       1  UNL1        0.0836
     42 H          -4.1008    1.4215   -1.1409 H       1  UNL1        0.0837
     43 H          -8.8434   -1.8522   -1.8827 H       1  UNL1        0.0705
     44 H          -8.4638    1.9154    2.0748 H       1  UNL1        0.0694
     45 H          -5.9659    1.3089    1.5390 H       1  UNL1        0.0629
     46 H           4.3190   -1.6577   -0.8766 H       1  UNL1        0.0581
@<TRIPOS>BOND
     1     1     2    1
     2     2     3    2
     3     3     4   ar
     4     4     5   ar
     5     5     6   ar
     6     6     7   ar
     7     7     8    1
     8     8     9   ar
     9     9    10   ar
    10    10    11   ar
    11    11    12   ar
    12    12    13   ar
    13    11    14    1
    14    14    15   ar
    15    15    16   ar
    16    16    17   ar
    17    17    18    1
    18    18    19   ar
    19    19    20   ar
    20    20    21   ar
    21    21    22   ar
    22    22    23   ar
    23    23    24   ar
    24    24    25   ar
    25    17    26   ar
    26    26    27   ar
    27    27    28   ar
    28    28    29   ar
    29    29    30   ar
    30     7    31   ar
    31    31    32    2
    32    32     1    1
    33    31     3   ar
    34    13     8   ar
    35    30    14   ar
    36    25    18   ar
    37    30    26   ar
    38    25    21   ar
    39     1    33    1
    40     1    34    1
    41     2    35    1
    42     4    36    1
    43     5    37    1
    44     6    38    1
    45     9    39    1
    46    10    40    1
    47    13    41    1
    48    16    42    1
    49    20    43    1
    50    23    44    1
    51    24    45    1
    52    32    46    1
