@<TRIPOS>MOLECULE
*****
 45 51 0 0 0
SMALL
GASTEIGER

@<TRIPOS>ATOM
      1 C           6.6955   -0.1132    1.4266 C.3     1  UNL1       -0.0148
      2 C           7.3393   -0.1947    0.0707 C.2     1  UNL1       -0.0725
      3 C           6.3948   -0.4278   -0.8501 C.ar    1  UNL1       -0.0212
      4 C           6.5180   -0.5675   -2.2782 C.ar    1  UNL1       -0.0543
      5 C           5.3953   -0.7999   -2.9830 C.ar    1  UNL1       -0.0606
      6 C           4.0797   -0.9195   -2.3427 C.ar    1  UNL1       -0.0529
      7 C           3.8861   -0.7860   -1.0029 C.ar    1  UNL1       -0.0039
      8 C           2.5632   -0.9535   -0.4735 C.ar    1  UNL1        0.0205
      9 C           2.1477   -1.7760    0.5566 C.ar    1  UNL1       -0.0463
     10 C           0.7555   -1.6568    0.8401 C.ar    1  UNL1       -0.0458
     11 C           0.1085   -0.7440    0.0265 C.ar    1  UNL1        0.0286
     12 S           1.2318   -0.0436   -1.0725 S.2     1  UNL1       -0.0877
     13 C          -1.3030   -0.3882    0.0432 C.ar    1  UNL1        0.0540
     14 S          -1.8990    1.0166   -0.7732 S.2     1  UNL1       -0.0828
     15 C          -3.5270    0.7549   -0.3054 C.ar    1  UNL1        0.0545
     16 C          -4.5672    1.6685   -0.6934 C.ar    1  UNL1        0.0363
     17 S          -4.8433    2.1191   -2.3405 S.2     1  UNL1       -0.0943
     18 C          -6.1565    3.1614   -1.9465 C.ar    1  UNL1       -0.0094
     19 C          -6.3793    3.1565   -0.5992 C.ar    1  UNL1        0.0269
     20 S          -7.5919    4.0385    0.3968 S.2     1  UNL1       -0.0961
     21 C          -6.8351    3.2245    1.7604 C.ar    1  UNL1       -0.0231
     22 C          -5.7675    2.3718    1.4590 C.ar    1  UNL1       -0.0459
     23 C          -5.4874    2.3161    0.0663 C.ar    1  UNL1        0.0045
     24 C          -3.6308   -0.3777    0.4695 C.ar    1  UNL1        0.1050
     25 N          -4.8128   -0.8329    0.9832 N.ar    1  UNL1       -0.2507
     26 C          -4.6358   -1.9748    1.6945 C.ar    1  UNL1        0.0464
     27 C          -3.4089   -2.6128    1.8933 C.ar    1  UNL1        0.0464
     28 N          -2.2157   -2.1859    1.4027 N.ar    1  UNL1       -0.2507
     29 C          -2.3534   -1.0376    0.6708 C.ar    1  UNL1        0.1050
     30 C           5.0868   -0.5293   -0.2056 C.ar    1  UNL1       -0.0136
     31 C           5.2421   -0.3389    1.1152 C.2     1  UNL1       -0.0719
     32 H           6.8513    0.8707    1.8769 H       1  UNL1        0.0350
     33 H           7.0805   -0.8909    2.0929 H       1  UNL1        0.0350
     34 H           8.3951   -0.0732   -0.1161 H       1  UNL1        0.0581
     35 H           7.4877   -0.4796   -2.7534 H       1  UNL1        0.0624
     36 H           5.4333   -0.9083   -4.0611 H       1  UNL1        0.0618
     37 H           3.2561   -1.1380   -3.0149 H       1  UNL1        0.0624
     38 H           2.8172   -2.4429    1.0876 H       1  UNL1        0.0629
     39 H           0.2620   -2.2275    1.6177 H       1  UNL1        0.0629
     40 H          -6.6978    3.7205   -2.6975 H       1  UNL1        0.0705
     41 H          -7.2392    3.4319    2.7411 H       1  UNL1        0.0694
     42 H          -5.2302    1.8210    2.2215 H       1  UNL1        0.0629
     43 H          -5.5435   -2.3909    2.1230 H       1  UNL1        0.0845
     44 H          -3.3607   -3.5275    2.4772 H       1  UNL1        0.0845
     45 H           4.4584   -0.3328    1.8542 H       1  UNL1        0.0581
@<TRIPOS>BOND
     1     1     2    1
     2     2     3    2
     3     3     4   ar
     4     4     5   ar
     5     5     6   ar
     6     6     7   ar
     7     7     8    1
     8     8     9   ar
     9     9    10   ar
    10    10    11   ar
    11    11    12   ar
    12    11    13    1
    13    13    14   ar
    14    14    15   ar
    15    15    16    1
    16    16    17   ar
    17    17    18   ar
    18    18    19   ar
    19    19    20   ar
    20    20    21   ar
    21    21    22   ar
    22    22    23   ar
    23    15    24   ar
    24    24    25   ar
    25    25    26   ar
    26    26    27   ar
    27    27    28   ar
    28    28    29   ar
    29     7    30   ar
    30    30    31    2
    31    31     1    1
    32    30     3   ar
    33    12     8   ar
    34    29    13   ar
    35    23    16   ar
    36    29    24   ar
    37    23    19   ar
    38     1    32    1
    39     1    33    1
    40     2    34    1
    41     4    35    1
    42     5    36    1
    43     6    37    1
    44     9    38    1
    45    10    39    1
    46    18    40    1
    47    21    41    1
    48    22    42    1
    49    26    43    1
    50    27    44    1
    51    31    45    1
