@<TRIPOS>MOLECULE
*****
 50 56 0 0 0
SMALL
GASTEIGER

@<TRIPOS>ATOM
      1 C           5.5114    2.4626   -1.6497 C.3     1  UNL1        0.0000
      2 C           6.4499    2.1630   -0.5134 C.2     1  UNL1        0.0000
      3 C           5.8519    1.3201    0.3383 C.ar    1  UNL1        0.0000
      4 C           6.3417    0.7427    1.5645 C.ar    1  UNL1        0.0000
      5 C           5.5251   -0.0934    2.2359 C.ar    1  UNL1        0.0000
      6 C           4.1766   -0.4198    1.7561 C.ar    1  UNL1        0.0000
      7 C           3.6537    0.0952    0.6142 C.ar    1  UNL1        0.0000
      8 C           2.3311   -0.2994    0.2485 C.ar    1  UNL1        0.0000
      9 S           1.0066    0.8088    0.4565 S.2     1  UNL1        0.0000
     10 C          -0.1764   -0.3017   -0.1582 C.ar    1  UNL1        0.0000
     11 C           0.4581   -1.4637   -0.4911 C.ar    1  UNL1        0.0000
     12 SI         -0.0662   -3.1273   -1.2047 Si      1  UNL1        0.0000
     13 C           1.7679   -3.6711   -1.1270 C.2     1  UNL1        0.0000
     14 C           2.5518   -2.6890   -0.6308 C.2     1  UNL1        0.0000
     15 C           1.8618   -1.4822   -0.2758 C.ar    1  UNL1        0.0000
     16 C          -1.5562    0.0604   -0.2284 C.ar    1  UNL1        0.0000
     17 C          -1.9393    0.8720   -1.2410 C.ar    1  UNL1        0.0000
     18 C          -3.3248    1.2870   -1.4518 C.ar    1  UNL1        0.0000
     19 C          -4.3467    0.8968   -0.6534 C.ar    1  UNL1        0.0000
     20 C          -5.6638    1.3406   -0.9872 C.ar    1  UNL1        0.0000
     21 C          -6.7759    0.6031   -1.3629 C.ar    1  UNL1        0.0000
     22 N          -7.9360    1.3143   -1.6045 N.ar    1  UNL1        0.0000
     23 C          -7.7027    2.5911   -1.4030 C.ar    1  UNL1        0.0000
     24 S          -6.1125    3.0074   -0.9220 S.2     1  UNL1        0.0000
     25 C          -4.0133    0.0105    0.4695 C.ar    1  UNL1        0.0000
     26 C          -4.8816   -0.4708    1.3837 C.2     1  UNL1        0.0000
     27 SI         -4.0163   -1.5387    2.6501 Si      1  UNL1        0.0000
     28 C          -2.4137   -1.2072    1.7562 C.2     1  UNL1        0.0000
     29 C          -2.6030   -0.4099    0.6844 C.ar    1  UNL1        0.0000
     30 C           4.5106    1.0014   -0.1425 C.ar    1  UNL1        0.0000
     31 C           4.2959    1.6510   -1.2970 C.2     1  UNL1        0.0000
     32 H           5.2732    3.5294   -1.6924 H       1  UNL1        0.0000
     33 H           5.9356    2.1401   -2.6051 H       1  UNL1        0.0000
     34 H           7.4441    2.5700   -0.4167 H       1  UNL1        0.0000
     35 H           7.3358    0.9849    1.9198 H       1  UNL1        0.0000
     36 H           5.8468   -0.5523    3.1657 H       1  UNL1        0.0000
     37 H           3.6023   -1.1026    2.3777 H       1  UNL1        0.0000
     38 H          -0.8899   -3.9532   -0.2861 H       1  UNL1        0.0000
     39 H          -0.5346   -3.0698   -2.6121 H       1  UNL1        0.0000
     40 H           2.0695   -4.6513   -1.4588 H       1  UNL1        0.0000
     41 H           3.6246   -2.7912   -0.5099 H       1  UNL1        0.0000
     42 H          -1.2167    1.2479   -1.9621 H       1  UNL1        0.0000
     43 H          -3.4937    1.9280   -2.3143 H       1  UNL1        0.0000
     44 H          -6.7891   -0.4746   -1.4771 H       1  UNL1        0.0000
     45 H          -8.4690    3.3445   -1.5304 H       1  UNL1        0.0000
     46 H          -5.9432   -0.2909    1.4453 H       1  UNL1        0.0000
     47 H          -4.4292   -2.9597    2.5588 H       1  UNL1        0.0000
     48 H          -4.0478   -0.9451    4.0080 H       1  UNL1        0.0000
     49 H          -1.4807   -1.6170    2.1104 H       1  UNL1        0.0000
     50 H           3.3963    1.6093   -1.8916 H       1  UNL1        0.0000
@<TRIPOS>BOND
     1     1     2    1
     2     2     3    2
     3     3     4   ar
     4     4     5   ar
     5     5     6   ar
     6     6     7   ar
     7     7     8    1
     8     8     9   ar
     9     9    10   ar
    10    10    11   ar
    11    11    12    1
    12    12    13    1
    13    13    14    2
    14    14    15    1
    15    10    16    1
    16    16    17   ar
    17    17    18   ar
    18    18    19   ar
    19    19    20    1
    20    20    21   ar
    21    21    22   ar
    22    22    23   ar
    23    23    24   ar
    24    19    25   ar
    25    25    26    2
    26    26    27    1
    27    27    28    1
    28    28    29    2
    29     7    30   ar
    30    30    31    2
    31    31     1    1
    32    30     3   ar
    33    15     8   ar
    34    29    16   ar
    35    15    11   ar
    36    24    20   ar
    37    29    25   ar
    38     1    32    1
    39     1    33    1
    40     2    34    1
    41     4    35    1
    42     5    36    1
    43     6    37    1
    44    12    38    1
    45    12    39    1
    46    13    40    1
    47    14    41    1
    48    17    42    1
    49    18    43    1
    50    21    44    1
    51    23    45    1
    52    26    46    1
    53    27    47    1
    54    27    48    1
    55    28    49    1
    56    31    50    1
