@<TRIPOS>MOLECULE
*****
 46 53 0 0 0
SMALL
GASTEIGER

@<TRIPOS>ATOM
      1 C          -7.5904   -0.5802    0.1185 C.ar    1  UNL1       -0.0231
      2 C          -7.1130    0.6686    0.4156 C.ar    1  UNL1       -0.0455
      3 C          -5.6849    0.7623    0.2882 C.ar    1  UNL1        0.0079
      4 C          -4.8539    1.8583    0.5046 C.ar    1  UNL1        0.0365
      5 N          -3.5211    1.7718    0.3371 N.ar    1  UNL1       -0.2536
      6 C          -2.9010    0.6484   -0.0431 C.ar    1  UNL1        0.0825
      7 C          -3.6828   -0.5260   -0.2864 C.ar    1  UNL1        0.0235
      8 C          -2.9120   -1.6476   -0.6818 C.ar    1  UNL1       -0.0000
      9 C          -3.3974   -2.9026   -0.9786 C.ar    1  UNL1       -0.0159
     10 S          -2.1720   -4.0166   -1.4197 S.2     1  UNL1       -0.1038
     11 C          -0.9543   -2.8358   -1.2222 C.ar    1  UNL1       -0.0160
     12 C          -1.4662   -1.6175   -0.8291 C.ar    1  UNL1       -0.0024
     13 C          -0.6554   -0.4761   -0.5985 C.ar    1  UNL1       -0.0048
     14 C           0.7716   -0.4605   -0.7477 C.ar    1  UNL1       -0.0434
     15 C           1.5696    0.6712   -0.5124 C.ar    1  UNL1        0.0115
     16 C           3.0272    0.6565   -0.6726 C.ar    1  UNL1       -0.0080
     17 C           3.5744    1.2142   -1.8435 C.ar    1  UNL1       -0.0534
     18 C           4.9463    1.2007   -2.0720 C.ar    1  UNL1       -0.0606
     19 C           5.7975    0.6257   -1.1338 C.ar    1  UNL1       -0.0540
     20 C           5.2930    0.0635    0.0475 C.ar    1  UNL1       -0.0173
     21 C           6.1710   -0.5082    0.9836 C.ar    1  UNL1       -0.0540
     22 C           5.6949   -1.0664    2.1685 C.ar    1  UNL1       -0.0612
     23 C           4.3329   -1.0571    2.4352 C.ar    1  UNL1       -0.0611
     24 C           3.4469   -0.4933    1.5142 C.ar    1  UNL1       -0.0534
     25 C           3.8963    0.0751    0.2976 C.ar    1  UNL1       -0.0101
     26 C           0.8694    1.8400   -0.1155 C.ar    1  UNL1        0.1082
     27 N           1.4334    3.0313    0.1534 N.ar    1  UNL1       -0.1901
     28 S           0.2163    4.0607    0.5754 S.2     1  UNL1        0.1165
     29 N          -1.0827    3.0600    0.4324 N.ar    1  UNL1       -0.1901
     30 C          -0.6463    1.8449    0.0476 C.ar    1  UNL1        0.1102
     31 C          -1.4555    0.6606   -0.1952 C.ar    1  UNL1        0.0369
     32 C          -5.0923   -0.4446   -0.1122 C.ar    1  UNL1        0.0305
     33 S          -6.3377   -1.6379   -0.3112 S.2     1  UNL1       -0.0959
     34 H          -8.6176   -0.9187    0.1346 H       1  UNL1        0.0694
     35 H          -7.7526    1.4909    0.7137 H       1  UNL1        0.0629
     36 H          -5.2271    2.8288    0.8154 H       1  UNL1        0.0836
     37 H          -4.4022   -3.2878   -0.9777 H       1  UNL1        0.0700
     38 H           0.0682   -3.1277   -1.4126 H       1  UNL1        0.0700
     39 H           1.2920   -1.3661   -1.0590 H       1  UNL1        0.0631
     40 H           2.9224    1.6691   -2.5873 H       1  UNL1        0.0624
     41 H           5.3517    1.6397   -2.9797 H       1  UNL1        0.0618
     42 H           6.8676    0.6253   -1.3305 H       1  UNL1        0.0624
     43 H           7.2428   -0.5194    0.7962 H       1  UNL1        0.0624
     44 H           6.3887   -1.5012    2.8829 H       1  UNL1        0.0618
     45 H           3.9551   -1.4824    3.3613 H       1  UNL1        0.0618
     46 H           2.3891   -0.4945    1.7673 H       1  UNL1        0.0624
@<TRIPOS>BOND
     1     1     2   ar
     2     2     3   ar
     3     3     4   ar
     4     4     5   ar
     5     5     6   ar
     6     6     7   ar
     7     7     8   ar
     8     8     9   ar
     9     9    10   ar
    10    10    11   ar
    11    11    12   ar
    12    12    13   ar
    13    13    14   ar
    14    14    15   ar
    15    15    16    1
    16    16    17   ar
    17    17    18   ar
    18    18    19   ar
    19    19    20   ar
    20    20    21   ar
    21    21    22   ar
    22    22    23   ar
    23    23    24   ar
    24    24    25   ar
    25    15    26   ar
    26    26    27   ar
    27    27    28   ar
    28    28    29   ar
    29    29    30   ar
    30    30    31   ar
    31     7    32   ar
    32    32    33   ar
    33    33     1   ar
    34    32     3   ar
    35    31     6   ar
    36    12     8   ar
    37    31    13   ar
    38    25    16   ar
    39    30    26   ar
    40    25    20   ar
    41     1    34    1
    42     2    35    1
    43     4    36    1
    44     9    37    1
    45    11    38    1
    46    14    39    1
    47    17    40    1
    48    18    41    1
    49    19    42    1
    50    21    43    1
    51    22    44    1
    52    23    45    1
    53    24    46    1
