@<TRIPOS>MOLECULE
*****
 35 40 0 0 0
SMALL
GASTEIGER

@<TRIPOS>ATOM
      1 C           6.3533   -0.9821    0.3332 C.ar    1  UNL1        0.0282
      2 C           5.7302    0.2397    0.5099 C.ar    1  UNL1       -0.0344
      3 C           4.3319    0.2942    0.4141 C.ar    1  UNL1        0.0052
      4 C           3.6170    1.4676    0.5750 C.ar    1  UNL1        0.0362
      5 N           2.2745    1.5410    0.4870 N.ar    1  UNL1       -0.2521
      6 C           1.5588    0.4203    0.2276 C.ar    1  UNL1        0.0996
      7 C           2.1893   -0.8300    0.0462 C.ar    1  UNL1        0.0990
      8 N           1.4998   -1.9648   -0.2138 N.ar    1  UNL1       -0.2522
      9 C           0.1565   -1.9049   -0.3044 C.ar    1  UNL1        0.0362
     10 C          -0.5883   -0.7486   -0.1489 C.ar    1  UNL1        0.0052
     11 C          -2.0041   -0.7922   -0.2639 C.ar    1  UNL1       -0.0396
     12 C          -2.8791    0.3187   -0.1266 C.ar    1  UNL1        0.0480
     13 C          -4.3373    0.1916   -0.2601 C.ar    1  UNL1        0.1651
     14 N          -4.8112   -1.0349   -0.5209 N.ar    1  UNL1       -0.2159
     15 C          -6.1360   -1.1163   -0.6360 C.ar    1  UNL1        0.1200
     16 N          -6.9954   -0.1109   -0.5165 N.ar    1  UNL1       -0.2241
     17 C          -6.4162    1.0568   -0.2585 C.ar    1  UNL1        0.1200
     18 N          -5.1104    1.2672   -0.1212 N.ar    1  UNL1       -0.2159
     19 C          -2.2101    1.5468    0.1489 C.ar    1  UNL1        0.1112
     20 N          -2.7766    2.7541    0.3272 N.ar    1  UNL1       -0.1900
     21 S          -1.5764    3.8438    0.6176 S.2     1  UNL1        0.1165
     22 N          -0.2596    2.8602    0.5370 N.ar    1  UNL1       -0.1901
     23 C          -0.6868    1.6115    0.2760 C.ar    1  UNL1        0.1104
     24 C           0.1415    0.4361    0.1233 C.ar    1  UNL1        0.0392
     25 C           3.5919   -0.8677    0.1454 C.ar    1  UNL1        0.0291
     26 C           4.3372   -2.0412   -0.0133 C.ar    1  UNL1        0.0374
     27 N           5.6895   -2.1245    0.0737 N.ar    1  UNL1       -0.2626
     28 H           7.4336   -1.0771    0.3974 H       1  UNL1        0.0830
     29 H           6.3227    1.1247    0.7168 H       1  UNL1        0.0639
     30 H           4.1073    2.4146    0.7856 H       1  UNL1        0.0836
     31 H          -0.3150   -2.8630   -0.5155 H       1  UNL1        0.0836
     32 H          -2.4623   -1.7635   -0.4765 H       1  UNL1        0.0632
     33 H          -6.5520   -2.0956   -0.8471 H       1  UNL1        0.1048
     34 H          -7.0657    1.9187   -0.1495 H       1  UNL1        0.1048
     35 H           3.8471   -2.9902   -0.2241 H       1  UNL1        0.0836
@<TRIPOS>BOND
     1     1     2   ar
     2     2     3   ar
     3     3     4   ar
     4     4     5   ar
     5     5     6   ar
     6     6     7   ar
     7     7     8   ar
     8     8     9   ar
     9     9    10   ar
    10    10    11   ar
    11    11    12   ar
    12    12    13    1
    13    13    14   ar
    14    14    15   ar
    15    15    16   ar
    16    16    17   ar
    17    17    18   ar
    18    12    19   ar
    19    19    20   ar
    20    20    21   ar
    21    21    22   ar
    22    22    23   ar
    23    23    24   ar
    24     7    25   ar
    25    25    26   ar
    26    26    27   ar
    27    27     1   ar
    28    25     3   ar
    29    24     6   ar
    30    24    10   ar
    31    18    13   ar
    32    23    19   ar
    33     1    28    1
    34     2    29    1
    35     4    30    1
    36     9    31    1
    37    11    32    1
    38    15    33    1
    39    17    34    1
    40    26    35    1
