@<TRIPOS>MOLECULE
*****
 43 49 0 0 0
SMALL
GASTEIGER

@<TRIPOS>ATOM
      1 C           6.8035   -1.3616   -1.5374 C.ar    1  UNL1        0.0028
      2 C           6.8873   -0.3601   -0.5875 C.ar    1  UNL1       -0.0352
      3 C           5.5633    0.0206   -0.2401 C.ar    1  UNL1        0.0189
      4 C           4.9585    0.9384    0.6237 C.ar    1  UNL1        0.0375
      5 N           3.6136    1.0879    0.7517 N.ar    1  UNL1       -0.2531
      6 C           2.7491    0.3244    0.0195 C.ar    1  UNL1        0.0883
      7 C           3.2166   -0.6163   -0.8677 C.ar    1  UNL1        0.0626
      8 S           2.0296   -1.4639   -1.6833 S.2     1  UNL1       -0.0845
      9 C           0.7837   -0.5890   -0.8659 C.ar    1  UNL1        0.0232
     10 C          -0.5966   -0.7728   -1.0529 C.ar    1  UNL1       -0.0390
     11 C          -1.5189   -0.0033   -0.3267 C.ar    1  UNL1       -0.0085
     12 C          -2.9405   -0.2477   -0.5674 C.ar    1  UNL1       -0.0091
     13 C          -3.6835    0.3762   -1.6035 C.ar    1  UNL1       -0.0534
     14 C          -5.0742    0.1380   -1.8525 C.ar    1  UNL1       -0.0606
     15 C          -5.8693   -0.7494   -1.0965 C.ar    1  UNL1       -0.0535
     16 C          -5.1381   -1.3644   -0.0804 C.ar    1  UNL1       -0.0103
     17 C          -5.6988   -2.2695    0.7863 C.ar    1  UNL1       -0.0166
     18 S          -4.5420   -2.8445    1.9205 S.2     1  UNL1       -0.1039
     19 C          -3.2886   -1.8778    1.2474 C.ar    1  UNL1       -0.0160
     20 C          -3.7379   -1.1328    0.1812 C.ar    1  UNL1       -0.0032
     21 C          -1.0555    0.9660    0.5922 C.ar    1  UNL1       -0.0095
     22 C          -1.9333    1.7774    1.3508 C.ar    1  UNL1       -0.0534
     23 C          -1.4636    2.7290    2.2572 C.ar    1  UNL1       -0.0611
     24 C          -0.0994    2.8992    2.4320 C.ar    1  UNL1       -0.0611
     25 C           0.7957    2.1188    1.7010 C.ar    1  UNL1       -0.0533
     26 C           0.3450    1.1473    0.7764 C.ar    1  UNL1       -0.0070
     27 C           1.2947    0.3559    0.0352 C.ar    1  UNL1        0.0230
     28 C           4.7367   -0.7724   -1.0001 C.ar    1  UNL1        0.0639
     29 N           5.4734   -1.6059   -1.7822 N.ar    1  UNL1       -0.3597
     30 H           7.5719   -1.9186   -2.0571 H       1  UNL1        0.0807
     31 H           7.8057    0.0509   -0.1885 H       1  UNL1        0.0639
     32 H           5.5536    1.5947    1.2519 H       1  UNL1        0.0836
     33 H          -0.9509   -1.5199   -1.7612 H       1  UNL1        0.0635
     34 H          -3.1692    1.0867   -2.2533 H       1  UNL1        0.0624
     35 H          -5.5432    0.6769   -2.6768 H       1  UNL1        0.0618
     36 H          -6.9186   -0.9154   -1.3011 H       1  UNL1        0.0624
     37 H          -6.7171   -2.6307    0.8264 H       1  UNL1        0.0699
     38 H          -2.2983   -1.9156    1.6808 H       1  UNL1        0.0700
     39 H          -3.0121    1.6761    1.2448 H       1  UNL1        0.0624
     40 H          -2.1670    3.3333    2.8237 H       1  UNL1        0.0618
     41 H           0.2753    3.6376    3.1358 H       1  UNL1        0.0618
     42 H           1.8569    2.2839    1.8675 H       1  UNL1        0.0624
     43 H           5.1023   -2.2877   -2.4315 H       1  UNL1        0.1654
@<TRIPOS>BOND
     1     1     2   ar
     2     2     3   ar
     3     3     4   ar
     4     4     5   ar
     5     5     6   ar
     6     6     7   ar
     7     7     8   ar
     8     8     9   ar
     9     9    10   ar
    10    10    11   ar
    11    11    12    1
    12    12    13   ar
    13    13    14   ar
    14    14    15   ar
    15    15    16   ar
    16    16    17   ar
    17    17    18   ar
    18    18    19   ar
    19    19    20   ar
    20    11    21   ar
    21    21    22   ar
    22    22    23   ar
    23    23    24   ar
    24    24    25   ar
    25    25    26   ar
    26    26    27   ar
    27     7    28   ar
    28    28    29   ar
    29    29     1   ar
    30    28     3   ar
    31    27     6   ar
    32    27     9   ar
    33    20    12   ar
    34    26    21   ar
    35    20    16   ar
    36     1    30    1
    37     2    31    1
    38     4    32    1
    39    10    33    1
    40    13    34    1
    41    14    35    1
    42    15    36    1
    43    17    37    1
    44    19    38    1
    45    22    39    1
    46    23    40    1
    47    24    41    1
    48    25    42    1
    49    29    43    1
