@<TRIPOS>MOLECULE
*****
 34 39 0 0 0
SMALL
GASTEIGER

@<TRIPOS>ATOM
      1 C          -6.7524    0.5828    0.6517 C.ar    1  UNL1        0.0932
      2 C          -6.3587    1.1137   -0.5587 C.ar    1  UNL1       -0.0146
      3 C          -4.9554    0.9169   -0.6468 C.ar    1  UNL1        0.0394
      4 C          -3.9374    1.1977   -1.5677 C.ar    1  UNL1        0.0391
      5 N          -2.6277    0.8777   -1.3740 N.ar    1  UNL1       -0.2515
      6 C          -2.2733    0.2510   -0.2287 C.ar    1  UNL1        0.1054
      7 C          -0.9640   -0.1445    0.1192 C.ar    1  UNL1        0.0805
      8 N           0.2959   -0.1014   -0.4167 N.ar    1  UNL1       -0.3520
      9 C           1.1756   -0.6663    0.4785 C.ar    1  UNL1        0.0486
     10 C           0.4590   -1.1104    1.5793 C.ar    1  UNL1       -0.0220
     11 C          -0.8992   -0.7576    1.3389 C.ar    1  UNL1        0.0403
     12 S          -2.4591   -0.8732    2.1085 S.2     1  UNL1       -0.0814
     13 C          -3.1411   -0.0955    0.7732 C.ar    1  UNL1        0.0830
     14 C          -4.6086    0.2773    0.5272 C.ar    1  UNL1        0.1520
     15 O          -5.6852    0.0690    1.3213 O.2     1  UNL1       -0.4617
     16 C           2.5938   -0.7906    0.1936 C.ar    1  UNL1        0.0065
     17 C           3.2861   -2.0238    0.2436 C.ar    1  UNL1       -0.0520
     18 C           4.6791   -2.1704   -0.0560 C.ar    1  UNL1       -0.0605
     19 C           5.5220   -1.1018   -0.4294 C.ar    1  UNL1       -0.0535
     20 C           4.8392    0.1146   -0.4619 C.ar    1  UNL1       -0.0102
     21 C           5.4606    1.2961   -0.7825 C.ar    1  UNL1       -0.0166
     22 S           4.3641    2.6164   -0.7049 S.2     1  UNL1       -0.1039
     23 C           3.0570    1.6010   -0.2350 C.ar    1  UNL1       -0.0160
     24 C           3.4342    0.2793   -0.1638 C.ar    1  UNL1       -0.0018
     25 H          -7.7041    0.4956    1.1580 H       1  UNL1        0.1030
     26 H          -7.0066    1.5837   -1.2850 H       1  UNL1        0.0655
     27 H          -4.1510    1.6988   -2.5078 H       1  UNL1        0.0837
     28 H           0.4968    0.2892   -1.3302 H       1  UNL1        0.1660
     29 H           0.8586   -1.6137    2.4495 H       1  UNL1        0.0650
     30 H           2.7312   -2.9232    0.5133 H       1  UNL1        0.0624
     31 H           5.1106   -3.1701    0.0079 H       1  UNL1        0.0618
     32 H           6.5728   -1.2352   -0.6499 H       1  UNL1        0.0624
     33 H           6.4938    1.4690   -1.0503 H       1  UNL1        0.0699
     34 H           2.0937    2.0478   -0.0331 H       1  UNL1        0.0700
@<TRIPOS>BOND
     1     1     2   ar
     2     2     3   ar
     3     3     4   ar
     4     4     5   ar
     5     5     6   ar
     6     6     7   ar
     7     7     8   ar
     8     8     9   ar
     9     9    10   ar
    10    10    11   ar
    11    11    12   ar
    12    12    13   ar
    13    13    14   ar
    14    14    15   ar
    15     9    16    1
    16    16    17   ar
    17    17    18   ar
    18    18    19   ar
    19    19    20   ar
    20    20    21   ar
    21    21    22   ar
    22    22    23   ar
    23    23    24   ar
    24    15     1   ar
    25    24    16   ar
    26    14     3   ar
    27    24    20   ar
    28    13     6   ar
    29    11     7   ar
    30     1    25    1
    31     2    26    1
    32     4    27    1
    33     8    28    1
    34    10    29    1
    35    17    30    1
    36    18    31    1
    37    19    32    1
    38    21    33    1
    39    23    34    1
