@<TRIPOS>MOLECULE
*****
 36 41 0 0 0
SMALL
GASTEIGER

@<TRIPOS>ATOM
      1 C          -6.2029    0.0548    0.1892 C.ar    1  UNL1        0.0028
      2 C          -5.8107   -0.8367    1.1624 C.ar    1  UNL1       -0.0352
      3 C          -4.3893   -0.8894    1.1545 C.ar    1  UNL1        0.0184
      4 C          -3.4294   -1.5882    1.8868 C.ar    1  UNL1        0.0374
      5 N          -2.1026   -1.4170    1.6343 N.ar    1  UNL1       -0.2535
      6 C          -1.6617   -0.5744    0.6764 C.ar    1  UNL1        0.0843
      7 C          -0.2652   -0.4256    0.4455 C.ar    1  UNL1        0.0284
      8 C           0.6766   -1.1325    1.1876 C.ar    1  UNL1        0.0381
      9 N           2.0271   -1.0520    1.0348 N.ar    1  UNL1       -0.2542
     10 C           2.5414   -0.2251    0.0911 C.ar    1  UNL1        0.0731
     11 C           1.6964    0.5320   -0.7114 C.ar    1  UNL1       -0.0257
     12 C           0.2988    0.4326   -0.5354 C.ar    1  UNL1        0.0158
     13 C          -0.6255    1.1841   -1.3281 C.ar    1  UNL1        0.1084
     14 N          -0.3229    2.0530   -2.3087 N.ar    1  UNL1       -0.1901
     15 S          -1.7596    2.6377   -2.8917 S.2     1  UNL1        0.1165
     16 N          -2.8352    1.8185   -1.9302 N.ar    1  UNL1       -0.1900
     17 C          -2.1038    1.0450   -1.1041 C.ar    1  UNL1        0.1116
     18 C          -2.5898    0.1641   -0.1016 C.ar    1  UNL1        0.0530
     19 C          -3.9524   -0.0162    0.1628 C.ar    1  UNL1        0.0594
     20 N          -5.0734    0.5452   -0.4091 N.ar    1  UNL1       -0.3600
     21 C           4.0188   -0.2029   -0.0028 C.ar    1  UNL1        0.0184
     22 C           4.7364    0.5876   -0.9156 C.ar    1  UNL1       -0.0497
     23 C           6.1330    0.5596   -0.9500 C.ar    1  UNL1       -0.0430
     24 C           6.7979   -0.2654   -0.0634 C.ar    1  UNL1        0.0276
     25 N           6.1687   -1.0454    0.8337 N.ar    1  UNL1       -0.2626
     26 C           4.8093   -0.9937    0.8397 C.ar    1  UNL1        0.0367
     27 H          -7.1844    0.3815   -0.1282 H       1  UNL1        0.0807
     28 H          -6.4756   -1.3921    1.8114 H       1  UNL1        0.0639
     29 H          -3.6818   -2.2874    2.6763 H       1  UNL1        0.0836
     30 H           0.3676   -1.8238    1.9711 H       1  UNL1        0.0836
     31 H           2.0838    1.2000   -1.4726 H       1  UNL1        0.0646
     32 H          -5.0436    1.2220   -1.1633 H       1  UNL1        0.1654
     33 H           4.2322    1.2420   -1.6199 H       1  UNL1        0.0625
     34 H           6.6859    1.1703   -1.6551 H       1  UNL1        0.0633
     35 H           7.8822   -0.3223   -0.0509 H       1  UNL1        0.0829
     36 H           4.3536   -1.6441    1.5845 H       1  UNL1        0.0836
@<TRIPOS>BOND
     1     1     2   ar
     2     2     3   ar
     3     3     4   ar
     4     4     5   ar
     5     5     6   ar
     6     6     7   ar
     7     7     8   ar
     8     8     9   ar
     9     9    10   ar
    10    10    11   ar
    11    11    12   ar
    12    12    13   ar
    13    13    14   ar
    14    14    15   ar
    15    15    16   ar
    16    16    17   ar
    17    17    18   ar
    18    18    19   ar
    19    19    20   ar
    20    10    21    1
    21    21    22   ar
    22    22    23   ar
    23    23    24   ar
    24    24    25   ar
    25    25    26   ar
    26    20     1   ar
    27    26    21   ar
    28    19     3   ar
    29    18     6   ar
    30    12     7   ar
    31    17    13   ar
    32     1    27    1
    33     2    28    1
    34     4    29    1
    35     8    30    1
    36    11    31    1
    37    20    32    1
    38    22    33    1
    39    23    34    1
    40    24    35    1
    41    26    36    1
