@<TRIPOS>MOLECULE
*****
 47 54 0 0 0
SMALL
GASTEIGER

@<TRIPOS>ATOM
      1 SI         -0.7455   -4.6646    1.0685 Si      1  UNL1        0.0000
      2 C           0.6111   -3.3842    1.0339 C.2     1  UNL1        0.0000
      3 C           0.1607   -2.1852    0.6038 C.ar    1  UNL1        0.0000
      4 C           1.0092   -0.9925    0.3336 C.ar    1  UNL1        0.0000
      5 C           2.4441   -1.0949    0.3792 C.ar    1  UNL1        0.0000
      6 C           3.3334   -0.1084   -0.1001 C.ar    1  UNL1        0.0000
      7 C           4.7763   -0.2606   -0.0277 C.ar    1  UNL1        0.0000
      8 N           5.4403   -1.3048   -0.4817 N.ar    1  UNL1        0.0000
      9 C           6.7866   -1.1601   -0.2120 C.ar    1  UNL1        0.0000
     10 C           7.1362   -0.0194    0.4756 C.ar    1  UNL1        0.0000
     11 S           5.7338    0.9076    0.8045 S.2     1  UNL1        0.0000
     12 C           2.6573    0.9312   -0.7542 C.ar    1  UNL1        0.0000
     13 C           3.2811    1.9075   -1.4991 C.ar    1  UNL1        0.0000
     14 S           2.1547    2.9399   -2.2731 S.2     1  UNL1        0.0000
     15 C           0.8228    2.0638   -1.6434 C.ar    1  UNL1        0.0000
     16 C           1.2077    1.0603   -0.7793 C.ar    1  UNL1        0.0000
     17 C           0.3134    0.1807   -0.1169 C.ar    1  UNL1        0.0000
     18 C          -1.1693    0.3281   -0.0155 C.ar    1  UNL1        0.0000
     19 C          -1.8413    1.5833    0.1584 C.ar    1  UNL1        0.0000
     20 C          -1.2088    2.7872    0.5625 C.ar    1  UNL1        0.0000
     21 C          -1.8955    4.0013    0.6757 C.ar    1  UNL1        0.0000
     22 C          -3.2561    4.0571    0.4136 C.ar    1  UNL1        0.0000
     23 C          -3.9370    2.8921    0.0768 C.ar    1  UNL1        0.0000
     24 C          -3.2498    1.6614   -0.0221 C.ar    1  UNL1        0.0000
     25 C          -3.9941    0.4817   -0.2702 C.ar    1  UNL1        0.0000
     26 C          -5.3673    0.1694   -0.5034 C.ar    1  UNL1        0.0000
     27 C          -5.4516   -1.1979   -0.5754 C.ar    1  UNL1        0.0000
     28 O          -4.2307   -1.7534   -0.3956 O.2     1  UNL1        0.0000
     29 C          -3.3284   -0.7395   -0.2232 C.ar    1  UNL1        0.0000
     30 C          -1.9470   -0.8644   -0.0270 C.ar    1  UNL1        0.0000
     31 C          -1.2944   -2.1533    0.2979 C.ar    1  UNL1        0.0000
     32 C          -1.9102   -3.3433    0.4689 C.2     1  UNL1        0.0000
     33 H          -1.0532   -5.1204    2.4457 H       1  UNL1        0.0000
     34 H          -0.5312   -5.7413    0.0718 H       1  UNL1        0.0000
     35 H           1.6151   -3.6749    1.2924 H       1  UNL1        0.0000
     36 H           2.8999   -2.0032    0.7727 H       1  UNL1        0.0000
     37 H           7.4768   -1.9285   -0.5386 H       1  UNL1        0.0000
     38 H           8.1167    0.2992    0.7983 H       1  UNL1        0.0000
     39 H           4.3355    2.0655   -1.6784 H       1  UNL1        0.0000
     40 H          -0.1706    2.3516   -1.9579 H       1  UNL1        0.0000
     41 H          -0.1524    2.7928    0.8246 H       1  UNL1        0.0000
     42 H          -1.3603    4.8986    0.9768 H       1  UNL1        0.0000
     43 H          -3.7918    4.9987    0.4993 H       1  UNL1        0.0000
     44 H          -5.0106    2.9484   -0.0838 H       1  UNL1        0.0000
     45 H          -6.1953    0.8576   -0.5905 H       1  UNL1        0.0000
     46 H          -6.2649   -1.8931   -0.7302 H       1  UNL1        0.0000
     47 H          -2.9553   -3.5769    0.3564 H       1  UNL1        0.0000
@<TRIPOS>BOND
     1     1     2    1
     2     2     3    2
     3     3     4   ar
     4     4     5   ar
     5     5     6   ar
     6     6     7    1
     7     7     8   ar
     8     8     9   ar
     9     9    10   ar
    10    10    11   ar
    11     6    12   ar
    12    12    13   ar
    13    13    14   ar
    14    14    15   ar
    15    15    16   ar
    16    16    17   ar
    17    17    18   ar
    18    18    19   ar
    19    19    20   ar
    20    20    21   ar
    21    21    22   ar
    22    22    23   ar
    23    23    24   ar
    24    24    25   ar
    25    25    26   ar
    26    26    27   ar
    27    27    28   ar
    28    28    29   ar
    29    29    30   ar
    30    30    31   ar
    31    31    32    2
    32    32     1    1
    33    31     3   ar
    34    17     4   ar
    35    30    18   ar
    36    11     7   ar
    37    16    12   ar
    38    24    19   ar
    39    29    25   ar
    40     1    33    1
    41     1    34    1
    42     2    35    1
    43     5    36    1
    44     9    37    1
    45    10    38    1
    46    13    39    1
    47    15    40    1
    48    20    41    1
    49    21    42    1
    50    22    43    1
    51    23    44    1
    52    26    45    1
    53    27    46    1
    54    32    47    1
