@<TRIPOS>MOLECULE
*****
 33 38 0 0 0
SMALL
GASTEIGER

@<TRIPOS>ATOM
      1 C           5.9070   -1.4660   -1.3967 C.ar    1  UNL1        0.0029
      2 C           6.1713   -0.3693   -0.5949 C.ar    1  UNL1       -0.0351
      3 C           4.9276    0.1569   -0.1504 C.ar    1  UNL1        0.0214
      4 C           4.4957    1.2221    0.6584 C.ar    1  UNL1        0.0377
      5 N           3.1854    1.5034    0.9242 N.ar    1  UNL1       -0.2504
      6 C           2.2185    0.7171    0.3832 C.ar    1  UNL1        0.1201
      7 C           0.8080    0.7560    0.4735 C.ar    1  UNL1        0.0644
      8 C          -0.1370    1.5533    1.1060 C.ar    1  UNL1        0.0411
      9 N          -1.4613    1.2785    0.9600 N.ar    1  UNL1       -0.2525
     10 C          -1.8915    0.2321    0.2027 C.ar    1  UNL1        0.0948
     11 C          -0.9978   -0.6107   -0.4613 C.ar    1  UNL1        0.0089
     12 C           0.3451   -0.3073   -0.2949 C.ar    1  UNL1        0.1414
     13 O           1.3889   -0.9955   -0.8508 O.2     1  UNL1       -0.4510
     14 C           2.5032   -0.3600   -0.4281 C.ar    1  UNL1        0.1782
     15 C           3.9686   -0.6563   -0.7117 C.ar    1  UNL1        0.0929
     16 N           4.5435   -1.6312   -1.4598 N.ar    1  UNL1       -0.3577
     17 C          -3.3454    0.0126    0.1032 C.ar    1  UNL1        0.1173
     18 N          -3.7937   -1.0524   -0.6671 N.ar    1  UNL1       -0.2511
     19 C          -5.1230   -1.3363   -0.8197 C.ar    1  UNL1        0.0305
     20 C          -6.1934   -0.6516   -0.2652 C.ar    1  UNL1       -0.0153
     21 C          -5.8068    0.4423    0.5293 C.ar    1  UNL1        0.1035
     22 N          -6.6601    1.2568    1.1707 N.ar    1  UNL1       -0.1907
     23 S          -5.7323    2.3790    1.9625 S.2     1  UNL1        0.1165
     24 N          -4.2172    1.8828    1.5284 N.ar    1  UNL1       -0.1886
     25 C          -4.3517    0.8041    0.7342 C.ar    1  UNL1        0.1272
     26 H           6.5689   -2.1395   -1.9250 H       1  UNL1        0.0807
     27 H           7.1571    0.0095   -0.3569 H       1  UNL1        0.0639
     28 H           5.2101    1.8944    1.1259 H       1  UNL1        0.0836
     29 H           0.1196    2.4047    1.7263 H       1  UNL1        0.0837
     30 H          -1.3178   -1.4475   -1.0680 H       1  UNL1        0.0676
     31 H           4.0499   -2.3513   -1.9723 H       1  UNL1        0.1654
     32 H          -5.3141   -2.2022   -1.4536 H       1  UNL1        0.0830
     33 H          -7.2253   -0.9284   -0.4255 H       1  UNL1        0.0655
@<TRIPOS>BOND
     1     1     2   ar
     2     2     3   ar
     3     3     4   ar
     4     4     5   ar
     5     5     6   ar
     6     6     7   ar
     7     7     8   ar
     8     8     9   ar
     9     9    10   ar
    10    10    11   ar
    11    11    12   ar
    12    12    13   ar
    13    13    14   ar
    14    14    15   ar
    15    15    16   ar
    16    10    17    1
    17    17    18   ar
    18    18    19   ar
    19    19    20   ar
    20    20    21   ar
    21    21    22   ar
    22    22    23   ar
    23    23    24   ar
    24    24    25   ar
    25    16     1   ar
    26    25    17   ar
    27    15     3   ar
    28    25    21   ar
    29    14     6   ar
    30    12     7   ar
    31     1    26    1
    32     2    27    1
    33     4    28    1
    34     8    29    1
    35    11    30    1
    36    16    31    1
    37    19    32    1
    38    20    33    1
