@<TRIPOS>MOLECULE
*****
 33 38 0 0 0
SMALL
GASTEIGER

@<TRIPOS>ATOM
      1 C           6.7661   -0.0319   -0.7457 C.ar    1  UNL1        0.0932
      2 C           6.4957   -0.1173    0.6040 C.ar    1  UNL1       -0.0146
      3 C           5.0819   -0.1425    0.7301 C.ar    1  UNL1        0.0394
      4 C           4.1473   -0.2178    1.7705 C.ar    1  UNL1        0.0392
      5 N           2.7997   -0.2232    1.5806 N.ar    1  UNL1       -0.2499
      6 C           2.3131   -0.1507    0.3197 C.ar    1  UNL1        0.1243
      7 C           0.9630   -0.1426   -0.0724 C.ar    1  UNL1        0.1686
      8 O          -0.2280   -0.2020    0.5885 O.2     1  UNL1       -0.4521
      9 C          -1.1907   -0.1401   -0.3829 C.ar    1  UNL1        0.1375
     10 C          -0.6409   -0.0710   -1.6455 C.ar    1  UNL1       -0.0014
     11 C           0.7566   -0.0638   -1.4144 C.ar    1  UNL1        0.0608
     12 S           2.2643    0.0051   -2.2858 S.2     1  UNL1       -0.0797
     13 C           3.0904   -0.0728   -0.8087 C.ar    1  UNL1        0.0846
     14 C           4.6052   -0.0694   -0.5639 C.ar    1  UNL1        0.1521
     15 O           5.6122   -0.0023   -1.4663 O.2     1  UNL1       -0.4617
     16 C          -2.5501   -0.1937    0.1189 C.ar    1  UNL1        0.0255
     17 C          -2.9323   -0.9942    1.2269 C.ar    1  UNL1       -0.0505
     18 C          -4.2703   -1.0957    1.7262 C.ar    1  UNL1       -0.0605
     19 C          -5.3678   -0.4047    1.1747 C.ar    1  UNL1       -0.0535
     20 C          -4.9914    0.3965    0.0967 C.ar    1  UNL1       -0.0102
     21 C          -5.8967    1.1754   -0.5806 C.ar    1  UNL1       -0.0166
     22 S          -5.1333    2.0720   -1.8292 S.2     1  UNL1       -0.1039
     23 C          -3.5865    1.4173   -1.4548 C.ar    1  UNL1       -0.0159
     24 C          -3.6436    0.5099   -0.4213 C.ar    1  UNL1       -0.0002
     25 H           7.6777    0.0147   -1.3259 H       1  UNL1        0.1030
     26 H           7.2300   -0.1564    1.3961 H       1  UNL1        0.0655
     27 H           4.4618   -0.2773    2.8090 H       1  UNL1        0.0837
     28 H          -1.1593   -0.0418   -2.5921 H       1  UNL1        0.0667
     29 H          -2.1622   -1.5795    1.7335 H       1  UNL1        0.0625
     30 H          -4.4455   -1.7468    2.5834 H       1  UNL1        0.0618
     31 H          -6.3719   -0.4931    1.5683 H       1  UNL1        0.0624
     32 H          -6.9599    1.2810   -0.4137 H       1  UNL1        0.0699
     33 H          -2.7348    1.7587   -2.0240 H       1  UNL1        0.0700
@<TRIPOS>BOND
     1     1     2   ar
     2     2     3   ar
     3     3     4   ar
     4     4     5   ar
     5     5     6   ar
     6     6     7   ar
     7     7     8   ar
     8     8     9   ar
     9     9    10   ar
    10    10    11   ar
    11    11    12   ar
    12    12    13   ar
    13    13    14   ar
    14    14    15   ar
    15     9    16    1
    16    16    17   ar
    17    17    18   ar
    18    18    19   ar
    19    19    20   ar
    20    20    21   ar
    21    21    22   ar
    22    22    23   ar
    23    23    24   ar
    24    15     1   ar
    25    24    16   ar
    26    14     3   ar
    27    24    20   ar
    28    13     6   ar
    29    11     7   ar
    30     1    25    1
    31     2    26    1
    32     4    27    1
    33    10    28    1
    34    17    29    1
    35    18    30    1
    36    19    31    1
    37    21    32    1
    38    23    33    1
