@<TRIPOS>MOLECULE
*****
 37 42 0 0 0
SMALL
GASTEIGER

@<TRIPOS>ATOM
      1 C           6.3928    0.2147    1.2438 C.ar    1  UNL1        0.0932
      2 C           6.5192   -0.7029    0.2265 C.ar    1  UNL1       -0.0146
      3 C           5.2032   -0.9760   -0.2317 C.ar    1  UNL1        0.0388
      4 C           4.6262   -1.7851   -1.2078 C.ar    1  UNL1        0.0390
      5 N           3.2766   -1.7995   -1.3789 N.ar    1  UNL1       -0.2541
      6 C           2.4761   -1.0345   -0.6109 C.ar    1  UNL1        0.0751
      7 C           1.0987   -1.0646   -0.8031 C.ar    1  UNL1       -0.0278
      8 C           0.1987   -0.2945   -0.0394 C.ar    1  UNL1       -0.0131
      9 C          -1.1998   -0.3678   -0.2821 C.ar    1  UNL1       -0.0441
     10 C          -2.1906    0.3643    0.4244 C.ar    1  UNL1        0.0109
     11 C          -3.6220    0.2396    0.1271 C.ar    1  UNL1       -0.0157
     12 C          -4.2405   -1.0224    0.0892 C.ar    1  UNL1       -0.0540
     13 C          -5.5994   -1.1530   -0.2111 C.ar    1  UNL1       -0.0612
     14 C          -6.3651   -0.0225   -0.4815 C.ar    1  UNL1       -0.0617
     15 C          -5.7735    1.2372   -0.4507 C.ar    1  UNL1       -0.0612
     16 C          -4.4145    1.3658   -0.1502 C.ar    1  UNL1       -0.0540
     17 C          -1.6954    1.2255    1.4486 C.ar    1  UNL1        0.1082
     18 N          -2.4205    2.0146    2.2627 N.ar    1  UNL1       -0.1901
     19 S          -1.3586    2.7916    3.2654 S.2     1  UNL1        0.1165
     20 N           0.0807    2.1772    2.7251 N.ar    1  UNL1       -0.1901
     21 C          -0.2110    1.3215    1.7284 C.ar    1  UNL1        0.1082
     22 C           0.7326    0.5495    0.9700 C.ar    1  UNL1        0.0111
     23 C           2.1193    0.6057    1.1926 C.ar    1  UNL1       -0.0392
     24 C           2.9641   -0.1874    0.3979 C.ar    1  UNL1        0.0439
     25 C           4.3577   -0.1976    0.5466 C.ar    1  UNL1        0.1454
     26 O           5.0866    0.5275    1.4457 O.2     1  UNL1       -0.4622
     27 H           7.0975    0.7184    1.8912 H       1  UNL1        0.1030
     28 H           7.4456   -1.1227   -0.1392 H       1  UNL1        0.0655
     29 H           5.2005   -2.4282   -1.8651 H       1  UNL1        0.0837
     30 H           0.7194   -1.7208   -1.5858 H       1  UNL1        0.0645
     31 H          -1.5448   -1.0288   -1.0820 H       1  UNL1        0.0630
     32 H          -3.6672   -1.9212    0.3079 H       1  UNL1        0.0624
     33 H          -6.0590   -2.1378   -0.2290 H       1  UNL1        0.0618
     34 H          -7.4224   -0.1221   -0.7124 H       1  UNL1        0.0618
     35 H          -6.3677    2.1234   -0.6577 H       1  UNL1        0.0618
     36 H          -3.9762    2.3621   -0.1339 H       1  UNL1        0.0624
     37 H           2.5330    1.2506    1.9650 H       1  UNL1        0.0632
@<TRIPOS>BOND
     1     1     2   ar
     2     2     3   ar
     3     3     4   ar
     4     4     5   ar
     5     5     6   ar
     6     6     7   ar
     7     7     8   ar
     8     8     9   ar
     9     9    10   ar
    10    10    11    1
    11    11    12   ar
    12    12    13   ar
    13    13    14   ar
    14    14    15   ar
    15    15    16   ar
    16    10    17   ar
    17    17    18   ar
    18    18    19   ar
    19    19    20   ar
    20    20    21   ar
    21    21    22   ar
    22    22    23   ar
    23    23    24   ar
    24    24    25   ar
    25    25    26   ar
    26    26     1   ar
    27    25     3   ar
    28    24     6   ar
    29    22     8   ar
    30    16    11   ar
    31    21    17   ar
    32     1    27    1
    33     2    28    1
    34     4    29    1
    35     7    30    1
    36     9    31    1
    37    12    32    1
    38    13    33    1
    39    14    34    1
    40    15    35    1
    41    16    36    1
    42    23    37    1
