@<TRIPOS>MOLECULE
*****
 44 52 0 0 0
SMALL
GASTEIGER

@<TRIPOS>ATOM
      1 C           7.2911   -0.0575   -0.4811 C.ar    1  UNL1        0.0932
      2 C           7.6361    0.6057    0.6985 C.ar    1  UNL1       -0.0156
      3 C           6.4100    0.9036    1.3065 C.ar    1  UNL1        0.0278
      4 C           5.9580    1.5062    2.4214 C.ar    1  UNL1       -0.0129
      5 S           4.2337    1.4297    2.3809 S.2     1  UNL1       -0.0922
      6 C           4.1625    0.5754    0.8405 C.ar    1  UNL1        0.0643
      7 C           2.8708    0.1974    0.2303 C.ar    1  UNL1        0.0224
      8 C           1.6345    0.5069    0.8599 C.ar    1  UNL1       -0.0272
      9 C           0.3974    0.1533    0.2909 C.ar    1  UNL1        0.0504
     10 N          -0.8823    0.3741    0.7625 N.ar    1  UNL1       -0.3535
     11 C          -1.8422   -0.1303   -0.0949 C.ar    1  UNL1        0.0582
     12 C          -1.1199   -0.6897   -1.1472 C.ar    1  UNL1        0.0383
     13 C          -1.8503   -1.3069   -2.2215 C.ar    1  UNL1        0.1103
     14 N          -1.2793   -1.8699   -3.2716 N.ar    1  UNL1       -0.1901
     15 S          -2.5602   -2.4137   -4.1821 S.2     1  UNL1        0.1165
     16 N          -3.8358   -1.9245   -3.2255 N.ar    1  UNL1       -0.1901
     17 C          -3.3091   -1.3086   -2.1419 C.ar    1  UNL1        0.1083
     18 C          -4.0517   -0.7359   -1.0644 C.ar    1  UNL1        0.0129
     19 C          -5.5038   -0.7743   -1.0516 C.ar    1  UNL1       -0.0512
     20 C          -6.3013   -0.2312   -0.0247 C.ar    1  UNL1       -0.0519
     21 C          -5.5090    0.3386    0.9605 C.ar    1  UNL1        0.0001
     22 C          -5.9925    0.9474    2.0885 C.ar    1  UNL1        0.0094
     23 N          -4.9017    1.3780    2.8051 N.ar    1  UNL1       -0.3659
     24 C          -3.7323    1.0485    2.1433 C.ar    1  UNL1        0.0101
     25 C          -4.0744    0.3950    0.9813 C.ar    1  UNL1        0.0091
     26 C          -3.2493   -0.1364   -0.0262 C.ar    1  UNL1        0.0173
     27 C           0.2441   -0.5140   -0.9069 C.ar    1  UNL1        0.0377
     28 C           1.4392   -0.8664   -1.6117 C.ar    1  UNL1        0.1103
     29 N           1.4274   -1.5063   -2.7677 N.ar    1  UNL1       -0.1901
     30 S           3.0341   -1.6663   -3.1480 S.2     1  UNL1        0.1165
     31 N           3.7179   -0.9188   -1.8354 N.ar    1  UNL1       -0.1901
     32 C           2.7363   -0.4951   -1.0139 C.ar    1  UNL1        0.1089
     33 C           5.4523    0.4012    0.4525 C.ar    1  UNL1        0.1495
     34 O           5.9324   -0.2040   -0.6688 O.2     1  UNL1       -0.4618
     35 H           7.8883   -0.4799   -1.2785 H       1  UNL1        0.1030
     36 H           8.6382    0.8245    1.0371 H       1  UNL1        0.0655
     37 H           6.4921    1.9736    3.2362 H       1  UNL1        0.0701
     38 H           1.6189    1.0328    1.8115 H       1  UNL1        0.0645
     39 H          -1.0815    0.8471    1.6289 H       1  UNL1        0.1659
     40 H          -6.0159   -1.2533   -1.8885 H       1  UNL1        0.0624
     41 H          -7.3813   -0.2670   -0.0281 H       1  UNL1        0.0624
     42 H          -6.9974    1.1165    2.4512 H       1  UNL1        0.0813
     43 H          -4.9485    1.8662    3.6904 H       1  UNL1        0.1648
     44 H          -2.7955    1.3280    2.5954 H       1  UNL1        0.0813
@<TRIPOS>BOND
     1     1     2   ar
     2     2     3   ar
     3     3     4   ar
     4     4     5   ar
     5     5     6   ar
     6     6     7    1
     7     7     8   ar
     8     8     9   ar
     9     9    10   ar
    10    10    11   ar
    11    11    12   ar
    12    12    13   ar
    13    13    14   ar
    14    14    15   ar
    15    15    16   ar
    16    16    17   ar
    17    17    18   ar
    18    18    19   ar
    19    19    20   ar
    20    20    21   ar
    21    21    22   ar
    22    22    23   ar
    23    23    24   ar
    24    24    25   ar
    25    25    26   ar
    26    12    27   ar
    27    27    28   ar
    28    28    29   ar
    29    29    30   ar
    30    30    31   ar
    31    31    32   ar
    32     6    33   ar
    33    33    34   ar
    34    34     1   ar
    35    33     3   ar
    36    32     7   ar
    37    27     9   ar
    38    32    28   ar
    39    26    11   ar
    40    17    13   ar
    41    26    18   ar
    42    25    21   ar
    43     1    35    1
    44     2    36    1
    45     4    37    1
    46     8    38    1
    47    10    39    1
    48    19    40    1
    49    20    41    1
    50    22    42    1
    51    23    43    1
    52    24    44    1
