@<TRIPOS>MOLECULE
*****
 34 39 0 0 0
SMALL
GASTEIGER

@<TRIPOS>ATOM
      1 C           6.3664   -0.8402    1.1602 C.ar    1  UNL1       -0.0231
      2 C           6.6860   -0.0062    0.0858 C.ar    1  UNL1       -0.0465
      3 C           5.5366    0.5048   -0.5607 C.ar    1  UNL1       -0.0032
      4 C           5.3863    1.3289   -1.6182 C.ar    1  UNL1       -0.0154
      5 S           3.7055    1.5432   -1.8790 S.2     1  UNL1       -0.0934
      6 C           3.2453    0.5155   -0.5545 C.ar    1  UNL1        0.0518
      7 C           1.8375    0.2544   -0.2068 C.ar    1  UNL1        0.0806
      8 C           0.7676    0.8123   -0.9141 C.ar    1  UNL1       -0.0111
      9 C          -0.5185    0.4803   -0.4765 C.ar    1  UNL1        0.0525
     10 N          -1.7478    0.8698   -0.9661 N.ar    1  UNL1       -0.3523
     11 C          -2.7181    0.2814   -0.2017 C.ar    1  UNL1        0.0746
     12 C          -4.1269    0.1826   -0.0626 C.ar    1  UNL1        0.0417
     13 C          -5.2385    0.7067   -0.7262 C.ar    1  UNL1        0.0387
     14 N          -6.4910    0.3935   -0.3129 N.ar    1  UNL1       -0.2625
     15 C          -6.6391   -0.4315    0.7483 C.ar    1  UNL1        0.0295
     16 C          -5.5991   -1.0010    1.4708 C.ar    1  UNL1       -0.0196
     17 C          -4.3178   -0.6689    1.0331 C.ar    1  UNL1        0.0518
     18 N          -3.0877   -1.0573    1.5213 N.ar    1  UNL1       -0.3523
     19 C          -2.1180   -0.4685    0.7564 C.ar    1  UNL1        0.0746
     20 C          -0.7099   -0.3690    0.6163 C.ar    1  UNL1        0.0417
     21 C           0.4025   -0.8877    1.2730 C.ar    1  UNL1        0.0394
     22 N           1.6518   -0.5692    0.8529 N.ar    1  UNL1       -0.2536
     23 C           4.3784    0.0286    0.0612 C.ar    1  UNL1        0.0355
     24 S           4.6573   -1.0767    1.4791 S.2     1  UNL1       -0.0955
     25 H           7.0617   -1.3518    1.8115 H       1  UNL1        0.0694
     26 H           7.7090    0.2078   -0.1981 H       1  UNL1        0.0629
     27 H           6.1277    1.8087   -2.2412 H       1  UNL1        0.0700
     28 H           0.9059    1.4709   -1.7614 H       1  UNL1        0.0660
     29 H          -1.9364    1.4812   -1.7499 H       1  UNL1        0.1660
     30 H          -5.1648    1.3703   -1.5793 H       1  UNL1        0.0837
     31 H          -7.6714   -0.6369    1.0211 H       1  UNL1        0.0830
     32 H          -5.7802   -1.6555    2.3133 H       1  UNL1        0.0653
     33 H          -2.8990   -1.6686    2.3049 H       1  UNL1        0.1660
     34 H           0.3387   -1.5518    2.1267 H       1  UNL1        0.0837
@<TRIPOS>BOND
     1     1     2   ar
     2     2     3   ar
     3     3     4   ar
     4     4     5   ar
     5     5     6   ar
     6     6     7    1
     7     7     8   ar
     8     8     9   ar
     9     9    10   ar
    10    10    11   ar
    11    11    12   ar
    12    12    13   ar
    13    13    14   ar
    14    14    15   ar
    15    15    16   ar
    16    16    17   ar
    17    17    18   ar
    18    18    19   ar
    19    19    20   ar
    20    20    21   ar
    21    21    22   ar
    22     6    23   ar
    23    23    24   ar
    24    24     1   ar
    25    23     3   ar
    26    22     7   ar
    27    20     9   ar
    28    19    11   ar
    29    17    12   ar
    30     1    25    1
    31     2    26    1
    32     4    27    1
    33     8    28    1
    34    10    29    1
    35    13    30    1
    36    15    31    1
    37    16    32    1
    38    18    33    1
    39    21    34    1
