@<TRIPOS>MOLECULE
*****
 43 50 0 0 0
SMALL
GASTEIGER

@<TRIPOS>ATOM
      1 C           6.3003    0.4115    1.8292 C.ar    1  UNL1        0.0028
      2 C           7.0725   -0.4206    0.9917 C.ar    1  UNL1       -0.0361
      3 C           6.1918   -0.9686    0.0286 C.ar    1  UNL1        0.0073
      4 C           6.1911   -1.7947   -1.0359 C.ar    1  UNL1       -0.0145
      5 S           4.5588   -1.8896   -1.6213 S.2     1  UNL1       -0.0939
      6 C           3.9356   -0.8125   -0.4023 C.ar    1  UNL1        0.0453
      7 C           2.5204   -0.4850   -0.3100 C.ar    1  UNL1        0.0208
      8 C           1.5215   -1.4735   -0.3772 C.ar    1  UNL1       -0.0273
      9 C           0.1632   -1.1211   -0.2975 C.ar    1  UNL1        0.0504
     10 N          -0.9456   -1.9323   -0.3358 N.ar    1  UNL1       -0.3512
     11 C          -2.0620   -1.1688   -0.2233 C.ar    1  UNL1        0.0916
     12 C          -3.4971   -1.6986   -0.2136 C.ar    1  UNL1        0.1591
     13 O          -3.8891   -2.9907   -0.3089 O.2     1  UNL1       -0.4608
     14 C          -5.2472   -2.9751   -0.2532 C.ar    1  UNL1        0.0932
     15 C          -5.7113   -1.6839   -0.1239 C.ar    1  UNL1       -0.0155
     16 C          -4.5656   -0.8382   -0.0973 C.ar    1  UNL1        0.0299
     17 C          -4.2686    0.5465    0.0061 C.ar    1  UNL1       -0.0064
     18 C          -5.3713    1.4176    0.1190 C.ar    1  UNL1       -0.0533
     19 C          -5.1812    2.7920    0.2182 C.ar    1  UNL1       -0.0611
     20 C          -3.8947    3.3127    0.2035 C.ar    1  UNL1       -0.0611
     21 C          -2.7831    2.4669    0.0932 C.ar    1  UNL1       -0.0534
     22 C          -2.9084    1.0660   -0.0047 C.ar    1  UNL1       -0.0073
     23 C          -1.7630    0.1822   -0.1153 C.ar    1  UNL1        0.0209
     24 C          -0.3335    0.1717   -0.1576 C.ar    1  UNL1        0.0363
     25 C           0.6488    1.2244   -0.0777 C.ar    1  UNL1        0.1102
     26 N           0.3481    2.5022    0.0711 N.ar    1  UNL1       -0.1901
     27 S           1.8240    3.2687    0.0891 S.2     1  UNL1        0.1165
     28 N           2.8390    1.9582   -0.0529 N.ar    1  UNL1       -0.1901
     29 C           2.0674    0.8525   -0.1555 C.ar    1  UNL1        0.1088
     30 C           4.9744   -0.4226    0.3733 C.ar    1  UNL1        0.0615
     31 N           4.9606    0.4242    1.4463 N.ar    1  UNL1       -0.3598
     32 H           6.6071    1.0144    2.6742 H       1  UNL1        0.0807
     33 H           8.1373   -0.5868    1.0859 H       1  UNL1        0.0639
     34 H           6.9969   -2.3383   -1.5069 H       1  UNL1        0.0700
     35 H           1.8005   -2.5207   -0.4835 H       1  UNL1        0.0645
     36 H          -0.9412   -2.9394   -0.4300 H       1  UNL1        0.1660
     37 H          -5.7288   -3.9410   -0.3172 H       1  UNL1        0.1030
     38 H          -6.7493   -1.3922   -0.0583 H       1  UNL1        0.0655
     39 H          -6.3902    1.0389    0.1296 H       1  UNL1        0.0624
     40 H          -6.0368    3.4566    0.3039 H       1  UNL1        0.0618
     41 H          -3.7435    4.3873    0.2764 H       1  UNL1        0.0618
     42 H          -1.8196    2.9512    0.0810 H       1  UNL1        0.0624
     43 H           4.1716    0.9483    1.8067 H       1  UNL1        0.1654
@<TRIPOS>BOND
     1     1     2   ar
     2     2     3   ar
     3     3     4   ar
     4     4     5   ar
     5     5     6   ar
     6     6     7    1
     7     7     8   ar
     8     8     9   ar
     9     9    10   ar
    10    10    11   ar
    11    11    12   ar
    12    12    13   ar
    13    13    14   ar
    14    14    15   ar
    15    15    16   ar
    16    16    17   ar
    17    17    18   ar
    18    18    19   ar
    19    19    20   ar
    20    20    21   ar
    21    21    22   ar
    22    22    23   ar
    23    23    24   ar
    24    24    25   ar
    25    25    26   ar
    26    26    27   ar
    27    27    28   ar
    28    28    29   ar
    29     6    30   ar
    30    30    31   ar
    31    31     1   ar
    32    30     3   ar
    33    29     7   ar
    34    24     9   ar
    35    29    25   ar
    36    23    11   ar
    37    16    12   ar
    38    22    17   ar
    39     1    32    1
    40     2    33    1
    41     4    34    1
    42     8    35    1
    43    10    36    1
    44    14    37    1
    45    15    38    1
    46    18    39    1
    47    19    40    1
    48    20    41    1
    49    21    42    1
    50    31    43    1
