@<TRIPOS>MOLECULE
*****
 31 36 0 0 0
SMALL
GASTEIGER

@<TRIPOS>ATOM
      1 C          -4.5209    0.9059    1.9269 C.ar    1  UNL1        0.0028
      2 C          -5.5043    0.3738    1.0730 C.ar    1  UNL1       -0.0361
      3 C          -4.8226   -0.2368   -0.0028 C.ar    1  UNL1        0.0073
      4 C          -5.0969   -0.9101   -1.1348 C.ar    1  UNL1       -0.0145
      5 S          -3.5870   -1.2999   -1.8786 S.2     1  UNL1       -0.0925
      6 C          -2.6227   -0.5353   -0.6275 C.ar    1  UNL1        0.0594
      7 C          -1.1787   -0.5285   -0.6924 C.ar    1  UNL1        0.0576
      8 C          -0.3686   -1.0954   -1.7014 C.ar    1  UNL1       -0.0118
      9 C           0.9696   -0.8346   -1.3276 C.ar    1  UNL1        0.0665
     10 N           2.3102   -0.9565   -1.6061 N.ar    1  UNL1       -0.3516
     11 C           2.9682   -0.3457   -0.6000 C.ar    1  UNL1        0.0706
     12 C           4.2751   -0.1301   -0.3018 C.ar    1  UNL1        0.0503
     13 S           5.6229   -0.6026   -1.1783 S.2     1  UNL1       -0.0940
     14 C           6.5936    0.1505    0.0538 C.ar    1  UNL1       -0.0226
     15 C           5.8788    0.7370    1.0911 C.ar    1  UNL1       -0.0403
     16 C           4.4847    0.5648    0.8715 C.ar    1  UNL1        0.0291
     17 S           2.8926    0.9073    1.5396 S.2     1  UNL1       -0.0840
     18 C           2.0961    0.1536    0.2969 C.ar    1  UNL1        0.0624
     19 C           0.8872   -0.1546   -0.1644 C.ar    1  UNL1        0.0793
     20 N          -0.3592    0.0588    0.2655 N.ar    1  UNL1       -0.3516
     21 C          -3.4886   -0.0245    0.2880 C.ar    1  UNL1        0.0628
     22 N          -3.2348    0.6629    1.4449 N.ar    1  UNL1       -0.3597
     23 H          -4.6365    1.4483    2.8567 H       1  UNL1        0.0807
     24 H          -6.5727    0.4343    1.2325 H       1  UNL1        0.0639
     25 H          -6.0415   -1.1968   -1.5731 H       1  UNL1        0.0700
     26 H          -0.7093   -1.6229   -2.5823 H       1  UNL1        0.0660
     27 H           2.7148   -1.4159   -2.4105 H       1  UNL1        0.1660
     28 H           7.6691    0.1183   -0.0579 H       1  UNL1        0.0694
     29 H           6.3262    1.2459    1.9346 H       1  UNL1        0.0634
     30 H          -0.5930    0.5494    1.1144 H       1  UNL1        0.1660
     31 H          -2.3518    0.9283    1.8498 H       1  UNL1        0.1654
@<TRIPOS>BOND
     1     1     2   ar
     2     2     3   ar
     3     3     4   ar
     4     4     5   ar
     5     5     6   ar
     6     6     7    1
     7     7     8   ar
     8     8     9   ar
     9     9    10   ar
    10    10    11   ar
    11    11    12   ar
    12    12    13   ar
    13    13    14   ar
    14    14    15   ar
    15    15    16   ar
    16    16    17   ar
    17    17    18   ar
    18    18    19   ar
    19    19    20   ar
    20     6    21   ar
    21    21    22   ar
    22    22     1   ar
    23    21     3   ar
    24    20     7   ar
    25    19     9   ar
    26    18    11   ar
    27    16    12   ar
    28     1    23    1
    29     2    24    1
    30     4    25    1
    31     8    26    1
    32    10    27    1
    33    14    28    1
    34    15    29    1
    35    20    30    1
    36    22    31    1
