@<TRIPOS>MOLECULE
*****
 41 47 0 0 0
SMALL
GASTEIGER

@<TRIPOS>ATOM
      1 C           6.4623    0.8035   -0.3741 C.ar    1  UNL1       -0.0231
      2 C           6.5918   -0.5729   -0.5791 C.ar    1  UNL1       -0.0465
      3 C           5.3423   -1.2353   -0.5937 C.ar    1  UNL1       -0.0032
      4 C           5.0057   -2.5321   -0.7575 C.ar    1  UNL1       -0.0154
      5 S           3.2959   -2.6468   -0.6644 S.2     1  UNL1       -0.0935
      6 C           3.0822   -0.9403   -0.4069 C.ar    1  UNL1        0.0497
      7 C           1.7784   -0.3569   -0.2401 C.ar    1  UNL1        0.0553
      8 C           1.3626    0.9397   -0.0282 C.ar    1  UNL1       -0.0275
      9 C          -0.0668    0.9627    0.0666 C.ar    1  UNL1        0.0086
     10 C          -0.5019   -0.3518   -0.0934 C.ar    1  UNL1        0.0560
     11 N           0.6298   -1.1131   -0.2746 N.ar    1  UNL1       -0.3532
     12 C          -1.8650   -0.6867   -0.0540 C.ar    1  UNL1        0.0173
     13 C          -2.4177   -1.9731   -0.2025 C.ar    1  UNL1        0.0295
     14 C          -1.8126   -3.1883   -0.4149 C.ar    1  UNL1        0.1000
     15 O          -2.7512   -4.1820   -0.4968 O.2     1  UNL1       -0.4698
     16 C          -3.9752   -3.6020   -0.3356 C.ar    1  UNL1        0.0994
     17 C          -3.8143   -2.2559   -0.1535 C.ar    1  UNL1        0.0205
     18 C          -4.8276   -1.3411    0.0420 C.ar    1  UNL1       -0.0504
     19 C          -4.2819   -0.0420    0.1927 C.ar    1  UNL1       -0.0527
     20 C          -2.8659    0.3333    0.1558 C.ar    1  UNL1       -0.0075
     21 C          -2.4204    1.6864    0.3206 C.ar    1  UNL1       -0.0095
     22 C          -3.2863    2.7915    0.5340 C.ar    1  UNL1       -0.0534
     23 C          -2.8179    4.1015    0.6912 C.ar    1  UNL1       -0.0611
     24 C          -1.4587    4.3637    0.6417 C.ar    1  UNL1       -0.0611
     25 C          -0.5676    3.3161    0.4349 C.ar    1  UNL1       -0.0534
     26 C          -1.0298    1.9891    0.2749 C.ar    1  UNL1       -0.0081
     27 C           4.3077   -0.3161   -0.3962 C.ar    1  UNL1        0.0355
     28 S           4.8264    1.4098   -0.1828 S.2     1  UNL1       -0.0955
     29 H           7.2640    1.5277   -0.3220 H       1  UNL1        0.0694
     30 H           7.5544   -1.0523   -0.7092 H       1  UNL1        0.0629
     31 H           5.6281   -3.4005   -0.9214 H       1  UNL1        0.0700
     32 H           2.0033    1.8050    0.0545 H       1  UNL1        0.0645
     33 H           0.6420   -2.1092   -0.4178 H       1  UNL1        0.1659
     34 H          -0.8013   -3.5423   -0.5302 H       1  UNL1        0.1036
     35 H          -4.8211   -4.2733   -0.3774 H       1  UNL1        0.1035
     36 H          -5.8864   -1.5527    0.0795 H       1  UNL1        0.0625
     37 H          -5.0250    0.7389    0.3519 H       1  UNL1        0.0624
     38 H          -4.3627    2.6599    0.5840 H       1  UNL1        0.0624
     39 H          -3.5232    4.9128    0.8523 H       1  UNL1        0.0618
     40 H          -1.0902    5.3784    0.7631 H       1  UNL1        0.0618
     41 H           0.4939    3.5469    0.4000 H       1  UNL1        0.0624
@<TRIPOS>BOND
     1     1     2   ar
     2     2     3   ar
     3     3     4   ar
     4     4     5   ar
     5     5     6   ar
     6     6     7    1
     7     7     8   ar
     8     8     9   ar
     9     9    10   ar
    10    10    11   ar
    11    10    12   ar
    12    12    13   ar
    13    13    14   ar
    14    14    15   ar
    15    15    16   ar
    16    16    17   ar
    17    17    18   ar
    18    18    19   ar
    19    19    20   ar
    20    20    21   ar
    21    21    22   ar
    22    22    23   ar
    23    23    24   ar
    24    24    25   ar
    25    25    26   ar
    26     6    27   ar
    27    27    28   ar
    28    28     1   ar
    29    27     3   ar
    30    11     7   ar
    31    20    12   ar
    32    26    21   ar
    33    26     9   ar
    34    17    13   ar
    35     1    29    1
    36     2    30    1
    37     4    31    1
    38     8    32    1
    39    11    33    1
    40    14    34    1
    41    16    35    1
    42    18    36    1
    43    19    37    1
    44    22    38    1
    45    23    39    1
    46    24    40    1
    47    25    41    1
