@<TRIPOS>MOLECULE
*****
 39 45 0 0 0
SMALL
GASTEIGER

@<TRIPOS>ATOM
      1 C           6.3782    0.2265    0.2408 C.ar    1  UNL1        0.0932
      2 C           6.8625   -1.0785    0.0866 C.ar    1  UNL1       -0.0156
      3 C           5.7156   -1.8743   -0.0525 C.ar    1  UNL1        0.0279
      4 C           5.3669   -3.1653   -0.2309 C.ar    1  UNL1       -0.0128
      5 S           3.6290   -3.2348   -0.2943 S.2     1  UNL1       -0.0893
      6 C           3.4378   -1.5209   -0.0780 C.ar    1  UNL1        0.0972
      7 C           2.1686   -0.8637   -0.0325 C.ar    1  UNL1        0.1464
      8 C           1.8756    0.4840    0.1331 C.ar    1  UNL1       -0.0068
      9 C           0.4608    0.6337    0.1083 C.ar    1  UNL1        0.0296
     10 C          -0.0218   -0.6428   -0.0724 C.ar    1  UNL1        0.1506
     11 O           0.9817   -1.5461   -0.1582 O.2     1  UNL1       -0.4530
     12 C          -1.5401   -0.9257   -0.1567 C.ar    1  UNL1        0.0654
     13 S          -2.2053   -2.4580   -0.3763 S.2     1  UNL1       -0.0829
     14 C          -3.7983   -1.8254   -0.3441 C.ar    1  UNL1        0.0389
     15 C          -5.0085   -2.5238   -0.4726 C.ar    1  UNL1       -0.0445
     16 C          -6.1828   -1.7852   -0.4135 C.ar    1  UNL1       -0.0425
     17 C          -6.0977   -0.4187   -0.2336 C.ar    1  UNL1        0.0283
     18 N          -4.9552    0.2804   -0.1072 N.ar    1  UNL1       -0.2538
     19 C          -3.7934   -0.4368   -0.1638 C.ar    1  UNL1        0.0864
     20 C          -2.4525    0.1072   -0.0513 C.ar    1  UNL1        0.0264
     21 C          -1.9087    1.4310    0.1375 C.ar    1  UNL1       -0.0068
     22 C          -2.7741    2.5385    0.2540 C.ar    1  UNL1       -0.0533
     23 C          -2.2781    3.8330    0.4375 C.ar    1  UNL1       -0.0611
     24 C          -0.9072    4.0603    0.5099 C.ar    1  UNL1       -0.0611
     25 C          -0.0142    2.9955    0.3997 C.ar    1  UNL1       -0.0533
     26 C          -0.4884    1.6820    0.2145 C.ar    1  UNL1       -0.0064
     27 C           4.6714   -0.9836    0.0303 C.ar    1  UNL1        0.1525
     28 O           4.9994    0.3283    0.2108 O.2     1  UNL1       -0.4617
     29 H           6.8836    1.1736    0.3794 H       1  UNL1        0.1030
     30 H           7.9014   -1.3751    0.0807 H       1  UNL1        0.0655
     31 H           5.9712   -4.0559   -0.3275 H       1  UNL1        0.0701
     32 H           2.6049    1.2719    0.2582 H       1  UNL1        0.0662
     33 H          -5.0252   -3.5997   -0.6127 H       1  UNL1        0.0630
     34 H          -7.1485   -2.2702   -0.5067 H       1  UNL1        0.0633
     35 H          -7.0027    0.1827   -0.1840 H       1  UNL1        0.0830
     36 H          -3.8530    2.4146    0.2042 H       1  UNL1        0.0624
     37 H          -2.9717    4.6661    0.5238 H       1  UNL1        0.0618
     38 H          -0.5321    5.0706    0.6527 H       1  UNL1        0.0618
     39 H           1.0510    3.2047    0.4602 H       1  UNL1        0.0624
@<TRIPOS>BOND
     1     1     2   ar
     2     2     3   ar
     3     3     4   ar
     4     4     5   ar
     5     5     6   ar
     6     6     7    1
     7     7     8   ar
     8     8     9   ar
     9     9    10   ar
    10    10    11   ar
    11    10    12   ar
    12    12    13   ar
    13    13    14   ar
    14    14    15   ar
    15    15    16   ar
    16    16    17   ar
    17    17    18   ar
    18    18    19   ar
    19    19    20   ar
    20    20    21   ar
    21    21    22   ar
    22    22    23   ar
    23    23    24   ar
    24    24    25   ar
    25    25    26   ar
    26     6    27   ar
    27    27    28   ar
    28    28     1   ar
    29    27     3   ar
    30    11     7   ar
    31    20    12   ar
    32    26    21   ar
    33    26     9   ar
    34    19    14   ar
    35     1    29    1
    36     2    30    1
    37     4    31    1
    38     8    32    1
    39    15    33    1
    40    16    34    1
    41    17    35    1
    42    22    36    1
    43    23    37    1
    44    24    38    1
    45    25    39    1
