@<TRIPOS>MOLECULE
*****
 45 52 0 0 0
SMALL
GASTEIGER

@<TRIPOS>ATOM
      1 C           6.0096   -0.5502    2.0832 C.ar    1  UNL1        0.0028
      2 C           6.8978    0.0209    1.1466 C.ar    1  UNL1       -0.0361
      3 C           6.1135    0.4922    0.0663 C.ar    1  UNL1        0.0073
      4 C           6.2310    1.1237   -1.1189 C.ar    1  UNL1       -0.0145
      5 S           4.6313    1.3010   -1.7784 S.2     1  UNL1       -0.0934
      6 C           3.8682    0.5046   -0.4362 C.ar    1  UNL1        0.0498
      7 C           2.4618    0.2574   -0.3403 C.ar    1  UNL1        0.0291
      8 C           1.8465   -0.9486   -0.1153 C.ar    1  UNL1       -0.0380
      9 C           0.4003   -0.8733   -0.0455 C.ar    1  UNL1       -0.0019
     10 C          -0.0446    0.4465   -0.2322 C.ar    1  UNL1        0.0290
     11 S           1.3174    1.4916   -0.4871 S.2     1  UNL1       -0.0870
     12 C          -1.4282    0.7686   -0.1993 C.ar    1  UNL1        0.0097
     13 C          -2.0002    2.0577   -0.3728 C.ar    1  UNL1        0.0090
     14 C          -1.3902    3.2747   -0.6113 C.ar    1  UNL1        0.0100
     15 N          -2.3601    4.2631   -0.7109 N.ar    1  UNL1       -0.3659
     16 C          -3.6092    3.7175   -0.5407 C.ar    1  UNL1        0.0101
     17 C          -3.3671    2.3936   -0.3400 C.ar    1  UNL1        0.0108
     18 C          -4.2949    1.3653   -0.1130 C.ar    1  UNL1        0.0299
     19 C          -5.6823    1.3914   -0.0281 C.ar    1  UNL1       -0.0155
     20 C          -6.0083    0.0745    0.2069 C.ar    1  UNL1        0.0932
     21 O          -4.8917   -0.7085    0.2625 O.2     1  UNL1       -0.4623
     22 C          -3.7880    0.0958    0.0602 C.ar    1  UNL1        0.1437
     23 C          -2.3947   -0.2882    0.0325 C.ar    1  UNL1        0.0344
     24 C          -1.9577   -1.6408    0.2209 C.ar    1  UNL1       -0.0060
     25 C          -2.8061   -2.7595    0.4521 C.ar    1  UNL1       -0.0533
     26 C          -2.3236   -4.0598    0.6272 C.ar    1  UNL1       -0.0611
     27 C          -0.9640   -4.2996    0.5778 C.ar    1  UNL1       -0.0611
     28 C          -0.0935   -3.2374    0.3547 C.ar    1  UNL1       -0.0534
     29 C          -0.5663   -1.9115    0.1764 C.ar    1  UNL1       -0.0089
     30 C           4.8328    0.1559    0.4464 C.ar    1  UNL1        0.0619
     31 N           4.6859   -0.4669    1.6547 N.ar    1  UNL1       -0.3597
     32 H           6.2211   -1.0103    3.0401 H       1  UNL1        0.0807
     33 H           7.9721    0.0809    1.2602 H       1  UNL1        0.0639
     34 H           7.1027    1.4928   -1.6391 H       1  UNL1        0.0700
     35 H           2.4116   -1.8663   -0.0128 H       1  UNL1        0.0635
     36 H          -0.3619    3.5780   -0.7286 H       1  UNL1        0.0813
     37 H          -2.1678    5.2414   -0.8849 H       1  UNL1        0.1648
     38 H          -4.5067    4.3184   -0.5816 H       1  UNL1        0.0813
     39 H          -6.3638    2.2234   -0.1197 H       1  UNL1        0.0655
     40 H          -6.9436   -0.4482    0.3518 H       1  UNL1        0.1030
     41 H          -3.8839   -2.6469    0.5015 H       1  UNL1        0.0624
     42 H          -3.0196   -4.8765    0.7995 H       1  UNL1        0.0618
     43 H          -0.5788   -5.3068    0.7097 H       1  UNL1        0.0618
     44 H           0.9669   -3.4696    0.3192 H       1  UNL1        0.0624
     45 H           3.8262   -0.7620    2.1021 H       1  UNL1        0.1654
@<TRIPOS>BOND
     1     1     2   ar
     2     2     3   ar
     3     3     4   ar
     4     4     5   ar
     5     5     6   ar
     6     6     7    1
     7     7     8   ar
     8     8     9   ar
     9     9    10   ar
    10    10    11   ar
    11    10    12   ar
    12    12    13   ar
    13    13    14   ar
    14    14    15   ar
    15    15    16   ar
    16    16    17   ar
    17    17    18   ar
    18    18    19   ar
    19    19    20   ar
    20    20    21   ar
    21    21    22   ar
    22    22    23   ar
    23    23    24   ar
    24    24    25   ar
    25    25    26   ar
    26    26    27   ar
    27    27    28   ar
    28    28    29   ar
    29     6    30   ar
    30    30    31   ar
    31    31     1   ar
    32    30     3   ar
    33    11     7   ar
    34    23    12   ar
    35    29    24   ar
    36    29     9   ar
    37    17    13   ar
    38    22    18   ar
    39     1    32    1
    40     2    33    1
    41     4    34    1
    42     8    35    1
    43    14    36    1
    44    15    37    1
    45    16    38    1
    46    19    39    1
    47    20    40    1
    48    25    41    1
    49    26    42    1
    50    27    43    1
    51    28    44    1
    52    31    45    1
