@<TRIPOS>MOLECULE
*****
 46 52 0 0 0
SMALL
GASTEIGER

@<TRIPOS>ATOM
      1 SI         -1.0496    4.2651   -1.7316 Si      1  UNL1        0.0000
      2 C           0.3829    3.0954   -1.4827 C.2     1  UNL1        0.0000
      3 C          -0.0031    1.9554   -0.8685 C.ar    1  UNL1        0.0000
      4 C           0.8971    0.8600   -0.4429 C.ar    1  UNL1        0.0000
      5 C           2.2999    1.0182   -0.4646 C.ar    1  UNL1        0.0000
      6 C           3.1526    0.0749    0.1162 C.ar    1  UNL1        0.0000
      7 C           2.5814   -1.0218    0.7537 C.ar    1  UNL1        0.0000
      8 C           1.1919   -1.1910    0.7716 C.ar    1  UNL1        0.0000
      9 C           0.3136   -0.3094    0.1093 C.ar    1  UNL1        0.0000
     10 C          -1.1848   -0.5231    0.1051 C.ar    1  UNL1        0.0000
     11 C          -1.8083   -1.8146    0.2377 C.ar    1  UNL1        0.0000
     12 C          -1.1592   -3.0618    0.0376 C.ar    1  UNL1        0.0000
     13 C          -1.7990   -4.2935    0.2230 C.ar    1  UNL1        0.0000
     14 C          -3.1333   -4.3339    0.5944 C.ar    1  UNL1        0.0000
     15 C          -3.8369   -3.1440    0.7395 C.ar    1  UNL1        0.0000
     16 C          -3.1972   -1.8996    0.5370 C.ar    1  UNL1        0.0000
     17 C          -3.9800   -0.7216    0.6067 C.ar    1  UNL1        0.0000
     18 C          -5.3486   -0.4181    0.8786 C.ar    1  UNL1        0.0000
     19 C          -5.4918    0.9352    0.7081 C.ar    1  UNL1        0.0000
     20 O          -4.3122    1.4887    0.3439 O.2     1  UNL1        0.0000
     21 C          -3.3773    0.4905    0.2874 C.ar    1  UNL1        0.0000
     22 C          -2.0186    0.6273   -0.0270 C.ar    1  UNL1        0.0000
     23 C          -1.4513    1.8813   -0.5674 C.ar    1  UNL1        0.0000
     24 C          -2.1390    2.9840   -0.9366 C.2     1  UNL1        0.0000
     25 C           4.6054    0.2471    0.1019 C.ar    1  UNL1        0.0000
     26 C           5.6212   -0.6870   -0.0248 C.ar    1  UNL1        0.0000
     27 C           6.8610   -0.0066    0.0371 C.ar    1  UNL1        0.0000
     28 C           6.5826    1.3279    0.2127 C.ar    1  UNL1        0.0000
     29 N           5.2208    1.4717    0.2555 N.ar    1  UNL1        0.0000
     30 H          -1.3581    4.4786   -3.1662 H       1  UNL1        0.0000
     31 H          -0.9121    5.4966   -0.9170 H       1  UNL1        0.0000
     32 H           1.3694    3.3901   -1.7971 H       1  UNL1        0.0000
     33 H           2.7352    1.8979   -0.9275 H       1  UNL1        0.0000
     34 H           3.2065   -1.7460    1.2713 H       1  UNL1        0.0000
     35 H           0.8093   -2.0243    1.3560 H       1  UNL1        0.0000
     36 H          -0.1331   -3.0983   -0.3216 H       1  UNL1        0.0000
     37 H          -1.2497   -5.2177    0.0612 H       1  UNL1        0.0000
     38 H          -3.6335   -5.2874    0.7396 H       1  UNL1        0.0000
     39 H          -4.8933   -3.1968    0.9900 H       1  UNL1        0.0000
     40 H          -6.1356   -1.1055    1.1522 H       1  UNL1        0.0000
     41 H          -6.3243    1.6193    0.7948 H       1  UNL1        0.0000
     42 H          -3.1988    3.1628   -0.8706 H       1  UNL1        0.0000
     43 H           5.4824   -1.7521   -0.1600 H       1  UNL1        0.0000
     44 H           7.8478   -0.4452   -0.0352 H       1  UNL1        0.0000
     45 H           7.2332    2.1859    0.3157 H       1  UNL1        0.0000
     46 H           4.7343    2.3454    0.4035 H       1  UNL1        0.0000
@<TRIPOS>BOND
     1     1     2    1
     2     2     3    2
     3     3     4   ar
     4     4     5   ar
     5     5     6   ar
     6     6     7   ar
     7     7     8   ar
     8     8     9   ar
     9     9    10   ar
    10    10    11   ar
    11    11    12   ar
    12    12    13   ar
    13    13    14   ar
    14    14    15   ar
    15    15    16   ar
    16    16    17   ar
    17    17    18   ar
    18    18    19   ar
    19    19    20   ar
    20    20    21   ar
    21    21    22   ar
    22    22    23   ar
    23    23    24    2
    24     6    25    1
    25    25    26   ar
    26    26    27   ar
    27    27    28   ar
    28    28    29   ar
    29    24     1    1
    30    29    25   ar
    31    23     3   ar
    32     9     4   ar
    33    22    10   ar
    34    16    11   ar
    35    21    17   ar
    36     1    30    1
    37     1    31    1
    38     2    32    1
    39     5    33    1
    40     7    34    1
    41     8    35    1
    42    12    36    1
    43    13    37    1
    44    14    38    1
    45    15    39    1
    46    18    40    1
    47    19    41    1
    48    24    42    1
    49    26    43    1
    50    27    44    1
    51    28    45    1
    52    29    46    1
