@<TRIPOS>MOLECULE
*****
 46 53 0 0 0
SMALL
GASTEIGER

@<TRIPOS>ATOM
      1 C           7.5260    1.0409    0.9653 C.ar    1  UNL1       -0.0231
      2 C           7.8183   -0.2274    0.4545 C.ar    1  UNL1       -0.0465
      3 C           6.6595   -0.9147    0.0229 C.ar    1  UNL1       -0.0032
      4 C           6.4731   -2.1398   -0.5132 C.ar    1  UNL1       -0.0154
      5 S           4.7891   -2.3449   -0.7846 S.2     1  UNL1       -0.0935
      6 C           4.3890   -0.7659   -0.1867 C.ar    1  UNL1        0.0497
      7 C           3.0376   -0.2803   -0.1531 C.ar    1  UNL1        0.0553
      8 C           2.5353    1.0105   -0.1126 C.ar    1  UNL1       -0.0275
      9 C           1.1512    0.8635   -0.0909 C.ar    1  UNL1        0.0100
     10 C           0.1282    1.8334   -0.1039 C.ar    1  UNL1        0.0092
     11 C           0.2464    3.1865   -0.1994 C.ar    1  UNL1        0.0101
     12 N          -1.0504    3.6309   -0.3149 N.ar    1  UNL1       -0.3659
     13 C          -1.9256    2.5561   -0.3039 C.ar    1  UNL1        0.0100
     14 C          -1.2109    1.3968   -0.0797 C.ar    1  UNL1        0.0084
     15 C          -1.7138    0.0561   -0.0221 C.ar    1  UNL1        0.0016
     16 C          -0.6231   -0.8711   -0.1444 C.ar    1  UNL1        0.0073
     17 C          -0.8877   -2.2396   -0.3055 C.ar    1  UNL1       -0.0514
     18 C          -2.2005   -2.7171   -0.3596 C.ar    1  UNL1       -0.0534
     19 C          -3.3075   -1.8864   -0.1620 C.ar    1  UNL1       -0.0166
     20 C          -4.6167   -2.4999   -0.1937 C.ar    1  UNL1       -0.0534
     21 C          -5.8349   -1.8467    0.0774 C.ar    1  UNL1       -0.0520
     22 C          -5.5883   -0.5390    0.4434 C.ar    1  UNL1        0.0000
     23 C          -6.5443    0.3267    0.9083 C.ar    1  UNL1        0.0094
     24 N          -5.8843    1.4709    1.2881 N.ar    1  UNL1       -0.3659
     25 C          -4.5291    1.3257    1.0787 C.ar    1  UNL1        0.0100
     26 C          -4.3152    0.1136    0.4642 C.ar    1  UNL1        0.0077
     27 C          -3.0694   -0.4835    0.0877 C.ar    1  UNL1       -0.0004
     28 C           0.7512   -0.4551   -0.1338 C.ar    1  UNL1        0.0554
     29 N           1.9492   -1.1417   -0.1805 N.ar    1  UNL1       -0.3532
     30 C           5.5290   -0.1188    0.2253 C.ar    1  UNL1        0.0355
     31 S           5.8327    1.5066    0.9700 S.2     1  UNL1       -0.0955
     32 H           8.2333    1.7584    1.3586 H       1  UNL1        0.0694
     33 H           8.8281   -0.6166    0.4094 H       1  UNL1        0.0629
     34 H           7.1878   -2.9142   -0.7534 H       1  UNL1        0.0700
     35 H           3.1002    1.9312   -0.1154 H       1  UNL1        0.0645
     36 H           1.0889    3.8616   -0.2460 H       1  UNL1        0.0813
     37 H          -1.3233    4.5941   -0.4589 H       1  UNL1        0.1648
     38 H          -2.9715    2.7371   -0.4995 H       1  UNL1        0.0813
     39 H          -0.0845   -2.9601   -0.4300 H       1  UNL1        0.0624
     40 H          -2.3432   -3.7838   -0.5279 H       1  UNL1        0.0624
     41 H          -4.6817   -3.5650   -0.4266 H       1  UNL1        0.0624
     42 H          -6.7955   -2.3394    0.0698 H       1  UNL1        0.0624
     43 H          -7.6120    0.2283    1.0486 H       1  UNL1        0.0813
     44 H          -6.3187    2.2750    1.7214 H       1  UNL1        0.1648
     45 H          -3.8563    2.0937    1.4286 H       1  UNL1        0.0813
     46 H           2.0341   -2.1463   -0.2197 H       1  UNL1        0.1659
@<TRIPOS>BOND
     1     1     2   ar
     2     2     3   ar
     3     3     4   ar
     4     4     5   ar
     5     5     6   ar
     6     6     7    1
     7     7     8   ar
     8     8     9   ar
     9     9    10   ar
    10    10    11   ar
    11    11    12   ar
    12    12    13   ar
    13    13    14   ar
    14    14    15   ar
    15    15    16   ar
    16    16    17   ar
    17    17    18   ar
    18    18    19   ar
    19    19    20   ar
    20    20    21   ar
    21    21    22   ar
    22    22    23   ar
    23    23    24   ar
    24    24    25   ar
    25    25    26   ar
    26    26    27   ar
    27    16    28   ar
    28    28    29   ar
    29     6    30   ar
    30    30    31   ar
    31    31     1   ar
    32    30     3   ar
    33    29     7   ar
    34    28     9   ar
    35    14    10   ar
    36    27    15   ar
    37    27    19   ar
    38    26    22   ar
    39     1    32    1
    40     2    33    1
    41     4    34    1
    42     8    35    1
    43    11    36    1
    44    12    37    1
    45    13    38    1
    46    17    39    1
    47    18    40    1
    48    20    41    1
    49    21    42    1
    50    23    43    1
    51    24    44    1
    52    25    45    1
    53    29    46    1
