@<TRIPOS>MOLECULE
*****
 44 51 0 0 0
SMALL
GASTEIGER

@<TRIPOS>ATOM
      1 C           5.7585   -2.5630   -0.4464 C.ar    1  UNL1       -0.0231
      2 C           6.6525   -1.5026   -0.2676 C.ar    1  UNL1       -0.0465
      3 C           5.9925   -0.2667   -0.0716 C.ar    1  UNL1       -0.0032
      4 C           6.4449    0.9881    0.1363 C.ar    1  UNL1       -0.0154
      5 S           5.0802    2.0200    0.2946 S.2     1  UNL1       -0.0935
      6 C           3.9396    0.7326    0.0756 C.ar    1  UNL1        0.0497
      7 C           2.5175    0.9495    0.0987 C.ar    1  UNL1        0.0553
      8 C           1.8015    2.1142    0.3203 C.ar    1  UNL1       -0.0275
      9 C           0.4638    1.7374    0.2513 C.ar    1  UNL1        0.0100
     10 C          -0.6972    2.5167    0.4129 C.ar    1  UNL1        0.0092
     11 C          -0.7740    3.8578    0.6346 C.ar    1  UNL1        0.0101
     12 N          -2.1211    4.1206    0.6491 N.ar    1  UNL1       -0.3659
     13 C          -2.8365    2.9508    0.4306 C.ar    1  UNL1        0.0100
     14 C          -1.9556    1.8885    0.3347 C.ar    1  UNL1        0.0084
     15 C          -2.2523    0.5025    0.1023 C.ar    1  UNL1        0.0030
     16 C          -3.5818   -0.1713    0.1308 C.ar    1  UNL1        0.0092
     17 C          -4.7751    0.4044    0.6016 C.ar    1  UNL1        0.0359
     18 N          -6.0151   -0.1602    0.6210 N.ar    1  UNL1       -0.2626
     19 C          -6.1148   -1.4171    0.1662 C.ar    1  UNL1        0.0282
     20 C          -5.0325   -2.1425   -0.2807 C.ar    1  UNL1       -0.0353
     21 C          -3.7581   -1.5245   -0.2812 C.ar    1  UNL1       -0.0062
     22 C          -2.5450   -2.1548   -0.6696 C.ar    1  UNL1       -0.0024
     23 C          -2.4905   -3.4554   -1.1234 C.ar    1  UNL1       -0.0160
     24 S          -0.9043   -3.9233   -1.5542 S.2     1  UNL1       -0.1038
     25 C          -0.2792   -2.3824   -1.1372 C.ar    1  UNL1       -0.0159
     26 C          -1.2343   -1.5329   -0.6212 C.ar    1  UNL1       -0.0006
     27 C          -1.0003   -0.2054   -0.1929 C.ar    1  UNL1        0.0155
     28 C           0.2885    0.4016   -0.0490 C.ar    1  UNL1        0.0560
     29 N           1.5899   -0.0616   -0.0993 N.ar    1  UNL1       -0.3532
     30 C           4.6093   -0.4537   -0.1125 C.ar    1  UNL1        0.0355
     31 S           4.0502   -2.1586   -0.3930 S.2     1  UNL1       -0.0955
     32 H           6.0136   -3.6011   -0.6128 H       1  UNL1        0.0694
     33 H           7.7270   -1.6403   -0.2817 H       1  UNL1        0.0629
     34 H           7.4550    1.3663    0.2057 H       1  UNL1        0.0700
     35 H           2.2080    3.0960    0.5208 H       1  UNL1        0.0645
     36 H          -0.0368    4.6392    0.7537 H       1  UNL1        0.0813
     37 H          -2.5348    5.0377    0.7577 H       1  UNL1        0.1648
     38 H          -3.9070    3.0395    0.3351 H       1  UNL1        0.0813
     39 H          -4.7838    1.3838    1.0615 H       1  UNL1        0.0836
     40 H          -7.1125   -1.8448    0.1855 H       1  UNL1        0.0830
     41 H          -5.1826   -3.1631   -0.6092 H       1  UNL1        0.0639
     42 H          -3.2877   -4.1731   -1.2496 H       1  UNL1        0.0700
     43 H           0.7645   -2.2219   -1.3396 H       1  UNL1        0.0700
     44 H           1.8561   -1.0269   -0.2072 H       1  UNL1        0.1659
@<TRIPOS>BOND
     1     1     2   ar
     2     2     3   ar
     3     3     4   ar
     4     4     5   ar
     5     5     6   ar
     6     6     7    1
     7     7     8   ar
     8     8     9   ar
     9     9    10   ar
    10    10    11   ar
    11    11    12   ar
    12    12    13   ar
    13    13    14   ar
    14    14    15   ar
    15    15    16   ar
    16    16    17   ar
    17    17    18   ar
    18    18    19   ar
    19    19    20   ar
    20    20    21   ar
    21    21    22   ar
    22    22    23   ar
    23    23    24   ar
    24    24    25   ar
    25    25    26   ar
    26    26    27   ar
    27    27    28   ar
    28    28    29   ar
    29     6    30   ar
    30    30    31   ar
    31    31     1   ar
    32    30     3   ar
    33    29     7   ar
    34    28     9   ar
    35    14    10   ar
    36    27    15   ar
    37    21    16   ar
    38    26    22   ar
    39     1    32    1
    40     2    33    1
    41     4    34    1
    42     8    35    1
    43    11    36    1
    44    12    37    1
    45    13    38    1
    46    17    39    1
    47    19    40    1
    48    20    41    1
    49    23    42    1
    50    25    43    1
    51    29    44    1
