@<TRIPOS>MOLECULE
*****
 42 49 0 0 0
SMALL
GASTEIGER

@<TRIPOS>ATOM
      1 C           6.6807    1.7356   -1.2434 C.ar    1  UNL1       -0.0231
      2 C           7.0168    0.5342   -0.6135 C.ar    1  UNL1       -0.0465
      3 C           5.8772   -0.1973   -0.2053 C.ar    1  UNL1       -0.0032
      4 C           5.7392   -1.3829    0.4249 C.ar    1  UNL1       -0.0154
      5 S           4.0605   -1.6842    0.6152 S.2     1  UNL1       -0.0935
      6 C           3.5907   -0.2008   -0.1616 C.ar    1  UNL1        0.0497
      7 C           2.2078    0.1629   -0.3287 C.ar    1  UNL1        0.0553
      8 C           1.6098    1.2687   -0.9032 C.ar    1  UNL1       -0.0275
      9 C           0.2395    1.0569   -0.7660 C.ar    1  UNL1        0.0100
     10 C          -0.8291    1.8805   -1.1824 C.ar    1  UNL1        0.0092
     11 C          -0.7632    3.0820   -1.8197 C.ar    1  UNL1        0.0101
     12 N          -2.0762    3.4474   -1.9891 N.ar    1  UNL1       -0.3659
     13 C          -2.9138    2.4764   -1.4597 C.ar    1  UNL1        0.0100
     14 C          -2.1471    1.4544   -0.9327 C.ar    1  UNL1        0.0089
     15 C          -2.5573    0.2620   -0.2939 C.ar    1  UNL1        0.0081
     16 C          -3.9117   -0.1421   -0.0552 C.ar    1  UNL1        0.0283
     17 S          -5.4291    0.6245   -0.4332 S.2     1  UNL1       -0.0960
     18 C          -6.3691   -0.6269    0.2465 C.ar    1  UNL1       -0.0231
     19 C          -5.5949   -1.6355    0.7663 C.ar    1  UNL1       -0.0464
     20 C          -4.2277   -1.3370    0.5832 C.ar    1  UNL1       -0.0020
     21 C          -3.1476   -2.1795    1.0094 C.ar    1  UNL1       -0.0020
     22 C          -3.3219   -3.3762    1.6462 C.ar    1  UNL1       -0.0160
     23 S          -1.7890   -4.0616    1.9809 S.2     1  UNL1       -0.1038
     24 C          -0.9666   -2.7249    1.2582 C.ar    1  UNL1       -0.0159
     25 C          -1.8133   -1.7541    0.7598 C.ar    1  UNL1       -0.0005
     26 C          -1.4159   -0.5592    0.1199 C.ar    1  UNL1        0.0160
     27 C          -0.0719   -0.1325   -0.1306 C.ar    1  UNL1        0.0560
     28 N           1.1803   -0.6562    0.1237 N.ar    1  UNL1       -0.3532
     29 C           4.7122    0.4942   -0.5501 C.ar    1  UNL1        0.0355
     30 S           4.9664    2.0803   -1.3945 S.2     1  UNL1       -0.0955
     31 H           7.3666    2.4694   -1.6445 H       1  UNL1        0.0694
     32 H           8.0440    0.2228   -0.4675 H       1  UNL1        0.0629
     33 H           6.4878   -2.0775    0.7789 H       1  UNL1        0.0700
     34 H           2.0960    2.1167   -1.3611 H       1  UNL1        0.0645
     35 H           0.0525    3.7024   -2.1631 H       1  UNL1        0.0813
     36 H          -2.3919    4.2993   -2.4343 H       1  UNL1        0.1648
     37 H          -3.9770    2.6427   -1.5283 H       1  UNL1        0.0813
     38 H          -7.4483   -0.5617    0.2318 H       1  UNL1        0.0694
     39 H          -6.0137   -2.5138    1.2390 H       1  UNL1        0.0629
     40 H          -4.2256   -3.8923    1.9360 H       1  UNL1        0.0700
     41 H           0.1049   -2.7870    1.2715 H       1  UNL1        0.0700
     42 H           1.3691   -1.5300    0.5828 H       1  UNL1        0.1659
@<TRIPOS>BOND
     1     1     2   ar
     2     2     3   ar
     3     3     4   ar
     4     4     5   ar
     5     5     6   ar
     6     6     7    1
     7     7     8   ar
     8     8     9   ar
     9     9    10   ar
    10    10    11   ar
    11    11    12   ar
    12    12    13   ar
    13    13    14   ar
    14    14    15   ar
    15    15    16   ar
    16    16    17   ar
    17    17    18   ar
    18    18    19   ar
    19    19    20   ar
    20    20    21   ar
    21    21    22   ar
    22    22    23   ar
    23    23    24   ar
    24    24    25   ar
    25    25    26   ar
    26    26    27   ar
    27    27    28   ar
    28     6    29   ar
    29    29    30   ar
    30    30     1   ar
    31    29     3   ar
    32    28     7   ar
    33    27     9   ar
    34    14    10   ar
    35    26    15   ar
    36    20    16   ar
    37    25    21   ar
    38     1    31    1
    39     2    32    1
    40     4    33    1
    41     8    34    1
    42    11    35    1
    43    12    36    1
    44    13    37    1
    45    18    38    1
    46    19    39    1
    47    22    40    1
    48    24    41    1
    49    28    42    1
