@<TRIPOS>MOLECULE
*****
 39 45 0 0 0
SMALL
GASTEIGER

@<TRIPOS>ATOM
      1 C           6.1276   -1.0775    0.1785 C.ar    1  UNL1        0.0028
      2 C           6.5963    0.2290    0.4165 C.ar    1  UNL1       -0.0361
      3 C           5.4574    1.0584    0.5288 C.ar    1  UNL1        0.0074
      4 C           5.1406    2.3494    0.7429 C.ar    1  UNL1       -0.0144
      5 S           3.4131    2.4683    0.7168 S.2     1  UNL1       -0.0909
      6 C           3.1768    0.7620    0.4161 C.ar    1  UNL1        0.0783
      7 C           1.8581    0.2037    0.2842 C.ar    1  UNL1        0.1448
      8 C           1.4460   -1.1071    0.0471 C.ar    1  UNL1       -0.0068
      9 C           0.0579   -1.0509    0.0193 C.ar    1  UNL1        0.0305
     10 C          -0.9316   -2.0404   -0.1780 C.ar    1  UNL1        0.0108
     11 C          -0.8092   -3.3765   -0.4050 C.ar    1  UNL1        0.0101
     12 N          -2.1099   -3.8282   -0.5181 N.ar    1  UNL1       -0.3659
     13 C          -3.0031   -2.7778   -0.3611 C.ar    1  UNL1        0.0100
     14 C          -2.2759   -1.6277   -0.1432 C.ar    1  UNL1        0.0079
     15 C          -2.7803   -0.3176    0.0689 C.ar    1  UNL1       -0.0046
     16 C          -4.1352    0.0839    0.1015 C.ar    1  UNL1       -0.0450
     17 C          -4.4661    1.4431    0.3269 C.ar    1  UNL1       -0.0102
     18 C          -5.7510    2.0814    0.4022 C.ar    1  UNL1       -0.0470
     19 C          -5.6662    3.4331    0.6375 C.ar    1  UNL1       -0.0232
     20 S          -4.0506    3.9568    0.7714 S.2     1  UNL1       -0.0966
     21 C          -3.4315    2.3664    0.5140 C.ar    1  UNL1        0.0200
     22 C          -2.0718    1.9913    0.4861 C.ar    1  UNL1       -0.0362
     23 C          -1.7493    0.6423    0.2623 C.ar    1  UNL1        0.0267
     24 C          -0.3849    0.2318    0.2284 C.ar    1  UNL1        0.1441
     25 O           0.7299    1.0085    0.3924 O.2     1  UNL1       -0.4536
     26 C           4.4029    0.1854    0.3497 C.ar    1  UNL1        0.0644
     27 N           4.7347   -1.1243    0.1328 N.ar    1  UNL1       -0.3597
     28 H           6.6861   -1.9938    0.0355 H       1  UNL1        0.0807
     29 H           7.6364    0.5171    0.4943 H       1  UNL1        0.0639
     30 H           5.7688    3.2123    0.9087 H       1  UNL1        0.0700
     31 H           2.0613   -1.9797   -0.0866 H       1  UNL1        0.0662
     32 H           0.0328   -4.0476   -0.4979 H       1  UNL1        0.0813
     33 H          -2.3768   -4.7889   -0.6909 H       1  UNL1        0.1648
     34 H          -4.0664   -2.9648   -0.4221 H       1  UNL1        0.0813
     35 H          -4.9274   -0.6438   -0.0453 H       1  UNL1        0.0630
     36 H          -6.6939    1.5614    0.2871 H       1  UNL1        0.0629
     37 H          -6.4782    4.1400    0.7374 H       1  UNL1        0.0694
     38 H          -1.2937    2.7356    0.6354 H       1  UNL1        0.0636
     39 H           4.1263   -1.9148   -0.0200 H       1  UNL1        0.1654
@<TRIPOS>BOND
     1     1     2   ar
     2     2     3   ar
     3     3     4   ar
     4     4     5   ar
     5     5     6   ar
     6     6     7    1
     7     7     8   ar
     8     8     9   ar
     9     9    10   ar
    10    10    11   ar
    11    11    12   ar
    12    12    13   ar
    13    13    14   ar
    14    14    15   ar
    15    15    16   ar
    16    16    17   ar
    17    17    18   ar
    18    18    19   ar
    19    19    20   ar
    20    20    21   ar
    21    21    22   ar
    22    22    23   ar
    23    23    24   ar
    24    24    25   ar
    25     6    26   ar
    26    26    27   ar
    27    27     1   ar
    28    26     3   ar
    29    25     7   ar
    30    24     9   ar
    31    14    10   ar
    32    23    15   ar
    33    21    17   ar
    34     1    28    1
    35     2    29    1
    36     4    30    1
    37     8    31    1
    38    11    32    1
    39    12    33    1
    40    13    34    1
    41    16    35    1
    42    18    36    1
    43    19    37    1
    44    22    38    1
    45    27    39    1
