@<TRIPOS>MOLECULE
*****
 46 53 0 0 0
SMALL
GASTEIGER

@<TRIPOS>ATOM
      1 C          -5.8123    1.4409    1.5723 C.ar    1  UNL1        0.0028
      2 C          -6.6790    0.4451    1.0717 C.ar    1  UNL1       -0.0361
      3 C          -5.8955   -0.4226    0.2728 C.ar    1  UNL1        0.0073
      4 C          -5.9953   -1.5353   -0.4826 C.ar    1  UNL1       -0.0145
      5 S          -4.4075   -1.8949   -1.0990 S.2     1  UNL1       -0.0939
      6 C          -3.6818   -0.5221   -0.3321 C.ar    1  UNL1        0.0439
      7 C          -2.2815   -0.2103   -0.4532 C.ar    1  UNL1        0.0020
      8 C          -1.2230   -1.0269    0.0130 C.ar    1  UNL1       -0.0444
      9 C           0.2210   -0.7520   -0.0654 C.ar    1  UNL1       -0.0068
     10 C           1.2075   -1.6706    0.4167 C.ar    1  UNL1       -0.0094
     11 C           0.8407   -2.9262    0.9831 C.ar    1  UNL1       -0.0534
     12 C           1.7623   -3.8744    1.4165 C.ar    1  UNL1       -0.0611
     13 C           3.1013   -3.6073    1.2788 C.ar    1  UNL1       -0.0611
     14 C           3.4986   -2.3838    0.7390 C.ar    1  UNL1       -0.0533
     15 C           2.6004   -1.3585    0.3270 C.ar    1  UNL1       -0.0070
     16 C           3.0262   -0.0628   -0.1940 C.ar    1  UNL1        0.0230
     17 C           4.3826    0.4857   -0.2095 C.ar    1  UNL1        0.0305
     18 S           5.8514   -0.1331    0.5049 S.2     1  UNL1       -0.0959
     19 C           6.8228    1.1279   -0.0680 C.ar    1  UNL1       -0.0231
     20 C           6.0838    2.0542   -0.7509 C.ar    1  UNL1       -0.0455
     21 C           4.6890    1.7146   -0.8128 C.ar    1  UNL1        0.0079
     22 C           3.6484    2.4332   -1.3831 C.ar    1  UNL1        0.0365
     23 N           2.3854    1.9924   -1.3080 N.ar    1  UNL1       -0.2537
     24 C           2.0629    0.8210   -0.7342 C.ar    1  UNL1        0.0810
     25 C           0.6946    0.4699   -0.6592 C.ar    1  UNL1        0.0194
     26 C          -0.3935    1.2695   -1.1399 C.ar    1  UNL1        0.0302
     27 C          -0.3617    2.4863   -1.7820 C.ar    1  UNL1        0.1001
     28 O          -1.6260    2.9053   -2.0840 O.2     1  UNL1       -0.4698
     29 C          -2.4861    1.9488   -1.6367 C.ar    1  UNL1        0.1000
     30 C          -1.7780    0.9384   -1.0377 C.ar    1  UNL1        0.0288
     31 C          -4.6382    0.1323    0.3625 C.ar    1  UNL1        0.0614
     32 N          -4.5031    1.2535    1.1322 N.ar    1  UNL1       -0.3598
     33 H          -6.0301    2.2808    2.2199 H       1  UNL1        0.0807
     34 H          -7.7390    0.3784    1.2778 H       1  UNL1        0.0639
     35 H          -6.8474   -2.1575   -0.7142 H       1  UNL1        0.0700
     36 H          -1.5561   -1.9516    0.4822 H       1  UNL1        0.0630
     37 H          -0.1983   -3.2195    1.0961 H       1  UNL1        0.0624
     38 H           1.4255   -4.8189    1.8343 H       1  UNL1        0.0618
     39 H           3.8453   -4.3411    1.5765 H       1  UNL1        0.0618
     40 H           4.5676   -2.2827    0.6149 H       1  UNL1        0.0624
     41 H           7.8853    1.1442    0.1339 H       1  UNL1        0.0694
     42 H           6.5117    2.9528   -1.1793 H       1  UNL1        0.0629
     43 H           3.7926    3.3872   -1.8791 H       1  UNL1        0.0836
     44 H           0.4203    3.1620   -2.0974 H       1  UNL1        0.1036
     45 H          -3.5337    2.1416   -1.8238 H       1  UNL1        0.1036
     46 H          -3.6598    1.7857    1.3136 H       1  UNL1        0.1654
@<TRIPOS>BOND
     1     1     2   ar
     2     2     3   ar
     3     3     4   ar
     4     4     5   ar
     5     5     6   ar
     6     6     7    1
     7     7     8   ar
     8     8     9   ar
     9     9    10   ar
    10    10    11   ar
    11    11    12   ar
    12    12    13   ar
    13    13    14   ar
    14    14    15   ar
    15    15    16   ar
    16    16    17   ar
    17    17    18   ar
    18    18    19   ar
    19    19    20   ar
    20    20    21   ar
    21    21    22   ar
    22    22    23   ar
    23    23    24   ar
    24    24    25   ar
    25    25    26   ar
    26    26    27   ar
    27    27    28   ar
    28    28    29   ar
    29    29    30   ar
    30     6    31   ar
    31    31    32   ar
    32    32     1   ar
    33    31     3   ar
    34    30     7   ar
    35    25     9   ar
    36    30    26   ar
    37    15    10   ar
    38    24    16   ar
    39    21    17   ar
    40     1    33    1
    41     2    34    1
    42     4    35    1
    43     8    36    1
    44    11    37    1
    45    12    38    1
    46    13    39    1
    47    14    40    1
    48    19    41    1
    49    20    42    1
    50    22    43    1
    51    27    44    1
    52    29    45    1
    53    32    46    1
