@<TRIPOS>MOLECULE
*****
 44 51 0 0 0
SMALL
GASTEIGER

@<TRIPOS>ATOM
      1 C           6.2840    0.1910   -1.4230 C.ar    1  UNL1        0.0028
      2 C           6.8753   -0.5636   -0.3882 C.ar    1  UNL1       -0.0361
      3 C           5.8565   -0.8417    0.5540 C.ar    1  UNL1        0.0073
      4 C           5.6660   -1.4682    1.7315 C.ar    1  UNL1       -0.0145
      5 S           3.9918   -1.2853    2.1545 S.2     1  UNL1       -0.0939
      6 C           3.6081   -0.3755    0.7193 C.ar    1  UNL1        0.0453
      7 C           2.2575    0.0809    0.4317 C.ar    1  UNL1        0.0195
      8 C           1.1249   -0.7521    0.5521 C.ar    1  UNL1       -0.0430
      9 C          -0.2552   -0.4055    0.3107 C.ar    1  UNL1       -0.0068
     10 C          -1.3037   -1.3803    0.4426 C.ar    1  UNL1       -0.0095
     11 C          -1.0354   -2.7386    0.7961 C.ar    1  UNL1       -0.0534
     12 C          -2.0095   -3.7315    0.8609 C.ar    1  UNL1       -0.0611
     13 C          -3.3044   -3.4081    0.5465 C.ar    1  UNL1       -0.0611
     14 C          -3.6101   -2.0886    0.2175 C.ar    1  UNL1       -0.0534
     15 C          -2.6645   -1.0233    0.2048 C.ar    1  UNL1       -0.0084
     16 C          -3.0158    0.3564   -0.0768 C.ar    1  UNL1        0.0077
     17 C          -4.3741    0.8937   -0.1190 C.ar    1  UNL1        0.0458
     18 S          -5.9061    0.2012    0.3461 S.2     1  UNL1       -0.0944
     19 C          -6.8052    1.5683   -0.1022 C.ar    1  UNL1       -0.0217
     20 C          -5.9922    2.5757   -0.5473 C.ar    1  UNL1       -0.0287
     21 C          -4.6153    2.2087   -0.5282 C.ar    1  UNL1        0.0786
     22 N          -3.6323    3.0587   -0.8788 N.ar    1  UNL1       -0.2538
     23 C          -2.3836    2.5856   -0.7205 C.ar    1  UNL1        0.0367
     24 C          -1.9804    1.3036   -0.3015 C.ar    1  UNL1        0.0117
     25 C          -0.5964    0.9255   -0.0930 C.ar    1  UNL1        0.0201
     26 C           0.5453    1.8324   -0.2400 C.ar    1  UNL1        0.1088
     27 N           0.5013    3.1274   -0.6041 N.ar    1  UNL1       -0.1901
     28 S           2.0324    3.7301   -0.6080 S.2     1  UNL1        0.1165
     29 N           2.8694    2.3779   -0.1827 N.ar    1  UNL1       -0.1901
     30 C           1.9718    1.3963    0.0211 C.ar    1  UNL1        0.1087
     31 C           4.7482   -0.2360    0.0026 C.ar    1  UNL1        0.0615
     32 N           4.9286    0.4122   -1.1873 N.ar    1  UNL1       -0.3598
     33 H           6.7326    0.6046   -2.3171 H       1  UNL1        0.0807
     34 H           7.9160   -0.8560   -0.3442 H       1  UNL1        0.0639
     35 H           6.3575   -2.0055    2.3640 H       1  UNL1        0.0700
     36 H           1.3650   -1.7700    0.8543 H       1  UNL1        0.0631
     37 H          -0.0328   -3.0844    1.0273 H       1  UNL1        0.0624
     38 H          -1.7416   -4.7499    1.1276 H       1  UNL1        0.0618
     39 H          -4.0813   -4.1677    0.5440 H       1  UNL1        0.0618
     40 H          -4.6371   -1.9330   -0.0858 H       1  UNL1        0.0624
     41 H          -7.8820    1.5806   -0.0018 H       1  UNL1        0.0694
     42 H          -6.3507    3.5479   -0.8589 H       1  UNL1        0.0644
     43 H          -1.6670    3.3571   -0.9766 H       1  UNL1        0.0836
     44 H           4.2442    0.9492   -1.7069 H       1  UNL1        0.1654
@<TRIPOS>BOND
     1     1     2   ar
     2     2     3   ar
     3     3     4   ar
     4     4     5   ar
     5     5     6   ar
     6     6     7    1
     7     7     8   ar
     8     8     9   ar
     9     9    10   ar
    10    10    11   ar
    11    11    12   ar
    12    12    13   ar
    13    13    14   ar
    14    14    15   ar
    15    15    16   ar
    16    16    17   ar
    17    17    18   ar
    18    18    19   ar
    19    19    20   ar
    20    20    21   ar
    21    21    22   ar
    22    22    23   ar
    23    23    24   ar
    24    24    25   ar
    25    25    26   ar
    26    26    27   ar
    27    27    28   ar
    28    28    29   ar
    29    29    30   ar
    30     6    31   ar
    31    31    32   ar
    32    32     1   ar
    33    31     3   ar
    34    30     7   ar
    35    25     9   ar
    36    30    26   ar
    37    15    10   ar
    38    24    16   ar
    39    21    17   ar
    40     1    33    1
    41     2    34    1
    42     4    35    1
    43     8    36    1
    44    11    37    1
    45    12    38    1
    46    13    39    1
    47    14    40    1
    48    19    41    1
    49    20    42    1
    50    23    43    1
    51    32    44    1
