@<TRIPOS>MOLECULE
*****
 40 46 0 0 0
SMALL
GASTEIGER

@<TRIPOS>ATOM
      1 C           6.0347   -1.3185   -0.3643 C.ar    1  UNL1        0.0932
      2 C           6.5264   -0.0080   -0.4121 C.ar    1  UNL1       -0.0156
      3 C           5.3853    0.8068   -0.3695 C.ar    1  UNL1        0.0279
      4 C           5.0447    2.1123   -0.3756 C.ar    1  UNL1       -0.0128
      5 S           3.3085    2.2014   -0.2903 S.2     1  UNL1       -0.0893
      6 C           3.1073    0.4754   -0.2496 C.ar    1  UNL1        0.0972
      7 C           1.8343   -0.1733   -0.1744 C.ar    1  UNL1        0.1464
      8 C           1.5406   -1.5320   -0.1356 C.ar    1  UNL1       -0.0067
      9 C           0.1553   -1.5897   -0.0653 C.ar    1  UNL1        0.0321
     10 C          -0.7275   -2.6832   -0.0017 C.ar    1  UNL1        0.0312
     11 C          -0.5030   -4.0215    0.0108 C.ar    1  UNL1        0.1001
     12 O          -1.7293   -4.6351    0.0830 O.2     1  UNL1       -0.4698
     13 C          -2.6856   -3.6466    0.1133 C.ar    1  UNL1        0.1000
     14 C          -2.0968   -2.4024    0.0618 C.ar    1  UNL1        0.0284
     15 C          -2.7229   -1.1319    0.0706 C.ar    1  UNL1       -0.0030
     16 C          -4.1110   -0.9325    0.1365 C.ar    1  UNL1       -0.0526
     17 C          -4.6182    0.3626    0.1389 C.ar    1  UNL1       -0.0534
     18 C          -3.7732    1.4810    0.0768 C.ar    1  UNL1       -0.0172
     19 C          -4.3475    2.7635    0.0828 C.ar    1  UNL1       -0.0540
     20 C          -3.5587    3.9087    0.0230 C.ar    1  UNL1       -0.0612
     21 C          -2.1807    3.7845   -0.0437 C.ar    1  UNL1       -0.0611
     22 C          -1.5944    2.5153   -0.0506 C.ar    1  UNL1       -0.0533
     23 C          -2.3602    1.3226    0.0089 C.ar    1  UNL1       -0.0066
     24 C          -1.8169   -0.0148    0.0054 C.ar    1  UNL1        0.0334
     25 C          -0.4067   -0.3318   -0.0595 C.ar    1  UNL1        0.1447
     26 O           0.6517    0.5415   -0.1279 O.2     1  UNL1       -0.4535
     27 C           4.3367   -0.0798   -0.3013 C.ar    1  UNL1        0.1525
     28 O           4.6563   -1.4060   -0.2938 O.2     1  UNL1       -0.4617
     29 H           6.5339   -2.2789   -0.3723 H       1  UNL1        0.1030
     30 H           7.5664    0.2796   -0.4693 H       1  UNL1        0.0655
     31 H           5.6541    3.0034   -0.4219 H       1  UNL1        0.0701
     32 H           2.2529   -2.3440   -0.1569 H       1  UNL1        0.0662
     33 H           0.3569   -4.6743   -0.0207 H       1  UNL1        0.1036
     34 H          -3.7036   -4.0052    0.1706 H       1  UNL1        0.1036
     35 H          -4.8005   -1.7701    0.1858 H       1  UNL1        0.0624
     36 H          -5.6978    0.4942    0.1906 H       1  UNL1        0.0624
     37 H          -5.4280    2.8829    0.1347 H       1  UNL1        0.0624
     38 H          -4.0205    4.8920    0.0286 H       1  UNL1        0.0618
     39 H          -1.5523    4.6701   -0.0909 H       1  UNL1        0.0618
     40 H          -0.5106    2.4819   -0.1042 H       1  UNL1        0.0624
@<TRIPOS>BOND
     1     1     2   ar
     2     2     3   ar
     3     3     4   ar
     4     4     5   ar
     5     5     6   ar
     6     6     7    1
     7     7     8   ar
     8     8     9   ar
     9     9    10   ar
    10    10    11   ar
    11    11    12   ar
    12    12    13   ar
    13    13    14   ar
    14    14    15   ar
    15    15    16   ar
    16    16    17   ar
    17    17    18   ar
    18    18    19   ar
    19    19    20   ar
    20    20    21   ar
    21    21    22   ar
    22    22    23   ar
    23    23    24   ar
    24    24    25   ar
    25    25    26   ar
    26     6    27   ar
    27    27    28   ar
    28    28     1   ar
    29    27     3   ar
    30    26     7   ar
    31    25     9   ar
    32    14    10   ar
    33    24    15   ar
    34    23    18   ar
    35     1    29    1
    36     2    30    1
    37     4    31    1
    38     8    32    1
    39    11    33    1
    40    13    34    1
    41    16    35    1
    42    17    36    1
    43    19    37    1
    44    20    38    1
    45    21    39    1
    46    22    40    1
