@<TRIPOS>MOLECULE
*****
 46 53 0 0 0
SMALL
GASTEIGER

@<TRIPOS>ATOM
      1 C          -6.8391   -1.5035    0.8928 C.ar    1  UNL1        0.0932
      2 C          -7.8177   -0.7095    0.2827 C.ar    1  UNL1       -0.0156
      3 C          -7.0999    0.2633   -0.4285 C.ar    1  UNL1        0.0278
      4 C          -7.3162    1.3250   -1.2314 C.ar    1  UNL1       -0.0128
      5 S          -5.7631    1.9631   -1.6846 S.2     1  UNL1       -0.0908
      6 C          -4.8761    0.7758   -0.7696 C.ar    1  UNL1        0.0803
      7 C          -3.4202    0.7321   -0.7032 C.ar    1  UNL1        0.0817
      8 C          -2.7306    0.1391    0.3499 C.ar    1  UNL1       -0.0267
      9 C          -1.3164    0.1405    0.3349 C.ar    1  UNL1       -0.0042
     10 C          -0.4305   -0.3635    1.3246 C.ar    1  UNL1       -0.0023
     11 C          -0.8703   -0.9092    2.5140 C.ar    1  UNL1       -0.0160
     12 S           0.4276   -1.3028    3.5765 S.2     1  UNL1       -0.1038
     13 C           1.6040   -0.7446    2.4535 C.ar    1  UNL1       -0.0159
     14 C           0.9943   -0.3650    1.2928 C.ar    1  UNL1       -0.0005
     15 C           1.6345    0.1563    0.1135 C.ar    1  UNL1        0.0168
     16 C           0.7938    0.7608   -0.8121 C.ar    1  UNL1        0.0574
     17 N           1.6554    1.3552   -1.7054 N.ar    1  UNL1       -0.3536
     18 C           2.9719    1.1011   -1.3814 C.ar    1  UNL1        0.0481
     19 C           4.1260    1.5928   -1.9971 C.ar    1  UNL1       -0.0372
     20 C           5.3581    1.1404   -1.5301 C.ar    1  UNL1       -0.0521
     21 C           5.4440    0.1546   -0.5451 C.ar    1  UNL1       -0.0172
     22 C           6.6984   -0.3527   -0.1692 C.ar    1  UNL1       -0.0540
     23 C           6.8039   -1.4063    0.7377 C.ar    1  UNL1       -0.0612
     24 C           5.6543   -1.9853    1.2590 C.ar    1  UNL1       -0.0611
     25 C           4.3992   -1.4822    0.9087 C.ar    1  UNL1       -0.0534
     26 C           4.2638   -0.3691    0.0502 C.ar    1  UNL1       -0.0081
     27 C           2.9930    0.2062   -0.3011 C.ar    1  UNL1        0.0157
     28 C          -0.6363    0.7445   -0.7475 C.ar    1  UNL1        0.0248
     29 C          -1.4266    1.3194   -1.7453 C.ar    1  UNL1        0.0380
     30 N          -2.7809    1.3250   -1.7428 N.ar    1  UNL1       -0.2536
     31 C          -5.7811   -0.0340   -0.1781 C.ar    1  UNL1        0.1510
     32 O          -5.5408   -1.1094    0.6264 O.2     1  UNL1       -0.4617
     33 H          -6.9095   -2.3721    1.5348 H       1  UNL1        0.1030
     34 H          -8.8868   -0.8458    0.3593 H       1  UNL1        0.0655
     35 H          -8.2346    1.7695   -1.5870 H       1  UNL1        0.0701
     36 H          -3.2687   -0.3059    1.1780 H       1  UNL1        0.0645
     37 H          -1.8811   -1.0778    2.8569 H       1  UNL1        0.0700
     38 H           2.6411   -0.7122    2.7479 H       1  UNL1        0.0700
     39 H           1.3725    1.9339   -2.4824 H       1  UNL1        0.1659
     40 H           4.0749    2.3090   -2.8115 H       1  UNL1        0.0638
     41 H           6.2617    1.5321   -1.9938 H       1  UNL1        0.0624
     42 H           7.6098    0.0558   -0.6009 H       1  UNL1        0.0624
     43 H           7.7818   -1.7953    1.0085 H       1  UNL1        0.0618
     44 H           5.7287   -2.8400    1.9264 H       1  UNL1        0.0618
     45 H           3.5253   -2.0136    1.2689 H       1  UNL1        0.0624
     46 H          -0.9919    1.8044   -2.6137 H       1  UNL1        0.0836
@<TRIPOS>BOND
     1     1     2   ar
     2     2     3   ar
     3     3     4   ar
     4     4     5   ar
     5     5     6   ar
     6     6     7    1
     7     7     8   ar
     8     8     9   ar
     9     9    10   ar
    10    10    11   ar
    11    11    12   ar
    12    12    13   ar
    13    13    14   ar
    14    14    15   ar
    15    15    16   ar
    16    16    17   ar
    17    17    18   ar
    18    18    19   ar
    19    19    20   ar
    20    20    21   ar
    21    21    22   ar
    22    22    23   ar
    23    23    24   ar
    24    24    25   ar
    25    25    26   ar
    26    26    27   ar
    27    16    28   ar
    28    28    29   ar
    29    29    30   ar
    30     6    31   ar
    31    31    32   ar
    32    32     1   ar
    33    31     3   ar
    34    30     7   ar
    35    28     9   ar
    36    14    10   ar
    37    27    15   ar
    38    27    18   ar
    39    26    21   ar
    40     1    33    1
    41     2    34    1
    42     4    35    1
    43     8    36    1
    44    11    37    1
    45    13    38    1
    46    17    39    1
    47    19    40    1
    48    20    41    1
    49    22    42    1
    50    23    43    1
    51    24    44    1
    52    25    45    1
    53    29    46    1
