@<TRIPOS>MOLECULE
*****
 42 49 0 0 0
SMALL
GASTEIGER

@<TRIPOS>ATOM
      1 C           6.6133   -1.0667   -0.0325 C.ar    1  UNL1        0.0932
      2 C           7.1282    0.2305    0.0838 C.ar    1  UNL1       -0.0156
      3 C           5.9998    1.0604    0.1623 C.ar    1  UNL1        0.0279
      4 C           5.6812    2.3660    0.2816 C.ar    1  UNL1       -0.0128
      5 S           3.9445    2.4824    0.2971 S.2     1  UNL1       -0.0893
      6 C           3.7137    0.7667    0.1419 C.ar    1  UNL1        0.0972
      7 C           2.4285    0.1411    0.0887 C.ar    1  UNL1        0.1464
      8 C           2.1089   -1.2075   -0.0278 C.ar    1  UNL1       -0.0068
      9 C           0.7176   -1.2469   -0.0309 C.ar    1  UNL1        0.0296
     10 C          -0.1931   -2.3229   -0.0796 C.ar    1  UNL1        0.0005
     11 C           0.1915   -3.6311   -0.1097 C.ar    1  UNL1       -0.0159
     12 S          -1.2125   -4.6094   -0.0312 S.2     1  UNL1       -0.1038
     13 C          -2.2507   -3.2273    0.0572 C.ar    1  UNL1       -0.0160
     14 C          -1.5882   -2.0201   -0.0651 C.ar    1  UNL1       -0.0017
     15 C          -2.2181   -0.7144   -0.0454 C.ar    1  UNL1        0.0036
     16 C          -3.6704   -0.3679   -0.1526 C.ar    1  UNL1        0.0093
     17 C          -4.6962   -1.2573   -0.5211 C.ar    1  UNL1        0.0359
     18 N          -6.0321   -1.0003   -0.5861 N.ar    1  UNL1       -0.2626
     19 C          -6.4252    0.2494   -0.3027 C.ar    1  UNL1        0.0282
     20 C          -5.5437    1.2604    0.0075 C.ar    1  UNL1       -0.0353
     21 C          -4.1618    0.9578    0.0591 C.ar    1  UNL1       -0.0062
     22 C          -3.1332    1.9120    0.2856 C.ar    1  UNL1       -0.0024
     23 C          -3.3750    3.2525    0.4966 C.ar    1  UNL1       -0.0160
     24 S          -1.9296    4.1464    0.7015 S.2     1  UNL1       -0.1038
     25 C          -0.9662    2.7431    0.5039 C.ar    1  UNL1       -0.0159
     26 C          -1.7194    1.6087    0.2871 C.ar    1  UNL1        0.0010
     27 C          -1.1905    0.3132    0.1097 C.ar    1  UNL1        0.0345
     28 C           0.1905    0.0116    0.0835 C.ar    1  UNL1        0.1446
     29 O           1.2561    0.8699    0.1588 O.2     1  UNL1       -0.4535
     30 C           4.9349    0.1941    0.0866 C.ar    1  UNL1        0.1525
     31 O           5.2318   -1.1318   -0.0345 O.2     1  UNL1       -0.4617
     32 H           7.0967   -2.0312   -0.1215 H       1  UNL1        0.1030
     33 H           8.1743    0.5002    0.1053 H       1  UNL1        0.0655
     34 H           6.3065    3.2439    0.3595 H       1  UNL1        0.0701
     35 H           2.8112   -2.0260   -0.0927 H       1  UNL1        0.0662
     36 H           1.1787   -4.0710   -0.1408 H       1  UNL1        0.0700
     37 H          -3.2921   -3.4424    0.2281 H       1  UNL1        0.0700
     38 H          -4.4790   -2.2629   -0.8588 H       1  UNL1        0.0836
     39 H          -7.4950    0.4280   -0.3545 H       1  UNL1        0.0830
     40 H          -5.9271    2.2568    0.1884 H       1  UNL1        0.0639
     41 H          -4.3145    3.7832    0.5433 H       1  UNL1        0.0700
     42 H           0.1056    2.8586    0.5694 H       1  UNL1        0.0700
@<TRIPOS>BOND
     1     1     2   ar
     2     2     3   ar
     3     3     4   ar
     4     4     5   ar
     5     5     6   ar
     6     6     7    1
     7     7     8   ar
     8     8     9   ar
     9     9    10   ar
    10    10    11   ar
    11    11    12   ar
    12    12    13   ar
    13    13    14   ar
    14    14    15   ar
    15    15    16   ar
    16    16    17   ar
    17    17    18   ar
    18    18    19   ar
    19    19    20   ar
    20    20    21   ar
    21    21    22   ar
    22    22    23   ar
    23    23    24   ar
    24    24    25   ar
    25    25    26   ar
    26    26    27   ar
    27    27    28   ar
    28    28    29   ar
    29     6    30   ar
    30    30    31   ar
    31    31     1   ar
    32    30     3   ar
    33    29     7   ar
    34    28     9   ar
    35    14    10   ar
    36    27    15   ar
    37    21    16   ar
    38    26    22   ar
    39     1    32    1
    40     2    33    1
    41     4    34    1
    42     8    35    1
    43    11    36    1
    44    13    37    1
    45    17    38    1
    46    19    39    1
    47    20    40    1
    48    23    41    1
    49    25    42    1
