@<TRIPOS>MOLECULE
*****
 38 44 0 0 0
SMALL
GASTEIGER

@<TRIPOS>ATOM
      1 C           6.1949   -0.4792   -0.0645 C.ar    1  UNL1        0.0028
      2 C           6.5575    0.8769   -0.1807 C.ar    1  UNL1       -0.0361
      3 C           5.3555    1.6197   -0.2265 C.ar    1  UNL1        0.0073
      4 C           4.9348    2.8946   -0.3261 C.ar    1  UNL1       -0.0145
      5 S           3.2037    2.8705   -0.3021 S.2     1  UNL1       -0.0925
      6 C           3.1050    1.1278   -0.1575 C.ar    1  UNL1        0.0593
      7 C           1.8459    0.4359   -0.0847 C.ar    1  UNL1        0.0563
      8 C           1.5308   -0.9187    0.0307 C.ar    1  UNL1       -0.0274
      9 C           0.1378   -0.9881    0.0541 C.ar    1  UNL1        0.0121
     10 C          -0.7796   -2.0776    0.1553 C.ar    1  UNL1       -0.0008
     11 C          -0.4032   -3.3881    0.2583 C.ar    1  UNL1       -0.0160
     12 S          -1.8106   -4.3947    0.3589 S.2     1  UNL1       -0.1038
     13 C          -2.8942   -3.0468    0.2618 C.ar    1  UNL1       -0.0158
     14 C          -2.1786   -1.8861    0.1573 C.ar    1  UNL1        0.0026
     15 C          -2.7694   -0.5914    0.0584 C.ar    1  UNL1        0.0565
     16 C          -4.0816   -0.1309    0.0372 C.ar    1  UNL1        0.1172
     17 N          -5.2848   -0.7571    0.1039 N.ar    1  UNL1       -0.2511
     18 C          -6.3470    0.0805    0.0486 C.ar    1  UNL1        0.0285
     19 C          -6.2882    1.4679   -0.0662 C.ar    1  UNL1       -0.0401
     20 C          -5.0487    2.1036   -0.1342 C.ar    1  UNL1       -0.0158
     21 C          -3.9482    1.2580   -0.0787 C.ar    1  UNL1        0.1545
     22 O          -2.6292    1.6340   -0.1264 O.2     1  UNL1       -0.4511
     23 C          -1.9155    0.4794   -0.0405 C.ar    1  UNL1        0.1622
     24 C          -0.3976    0.2641   -0.0420 C.ar    1  UNL1        0.0911
     25 N           0.6401    1.1360   -0.1269 N.ar    1  UNL1       -0.3508
     26 C           4.3751    0.6525   -0.1345 C.ar    1  UNL1        0.0628
     27 N           4.8104   -0.6403   -0.0337 N.ar    1  UNL1       -0.3597
     28 H           6.8242   -1.3577   -0.0002 H       1  UNL1        0.0807
     29 H           7.5712    1.2524   -0.2244 H       1  UNL1        0.0639
     30 H           5.4927    3.8158   -0.4089 H       1  UNL1        0.0700
     31 H           2.2172   -1.7475    0.0901 H       1  UNL1        0.0645
     32 H           0.5824   -3.8301    0.2821 H       1  UNL1        0.0700
     33 H          -3.9650   -3.2003    0.2880 H       1  UNL1        0.0700
     34 H          -7.3131   -0.4180    0.1018 H       1  UNL1        0.0830
     35 H          -7.2048    2.0488   -0.1024 H       1  UNL1        0.0634
     36 H          -4.9432    3.1767   -0.2238 H       1  UNL1        0.0655
     37 H           0.5617    2.1411   -0.2085 H       1  UNL1        0.1660
     38 H           4.2614   -1.4837    0.0426 H       1  UNL1        0.1654
@<TRIPOS>BOND
     1     1     2   ar
     2     2     3   ar
     3     3     4   ar
     4     4     5   ar
     5     5     6   ar
     6     6     7    1
     7     7     8   ar
     8     8     9   ar
     9     9    10   ar
    10    10    11   ar
    11    11    12   ar
    12    12    13   ar
    13    13    14   ar
    14    14    15   ar
    15    15    16   ar
    16    16    17   ar
    17    17    18   ar
    18    18    19   ar
    19    19    20   ar
    20    20    21   ar
    21    21    22   ar
    22    22    23   ar
    23    23    24   ar
    24    24    25   ar
    25     6    26   ar
    26    26    27   ar
    27    27     1   ar
    28    26     3   ar
    29    25     7   ar
    30    24     9   ar
    31    14    10   ar
    32    23    15   ar
    33    21    16   ar
    34     1    28    1
    35     2    29    1
    36     4    30    1
    37     8    31    1
    38    11    32    1
    39    13    33    1
    40    18    34    1
    41    19    35    1
    42    20    36    1
    43    25    37    1
    44    27    38    1
