@<TRIPOS>MOLECULE
*****
 39 44 0 0 0
SMALL
GASTEIGER

@<TRIPOS>ATOM
      1 SI          1.8810    3.6203    0.6480 Si      1  UNL1        0.0000
      2 C           0.2855    2.6950    0.4301 C.2     1  UNL1        0.0000
      3 C           0.4847    1.3686    0.2644 C.ar    1  UNL1        0.0000
      4 C          -0.5954    0.3559    0.1670 C.ar    1  UNL1        0.0000
      5 C          -1.9574    0.7327    0.1345 C.ar    1  UNL1        0.0000
      6 C          -3.0051   -0.2029    0.0751 C.ar    1  UNL1        0.0000
      7 C          -2.6359   -1.5519    0.0471 C.ar    1  UNL1        0.0000
      8 C          -1.2909   -1.9471    0.0692 C.ar    1  UNL1        0.0000
      9 C          -0.2356   -1.0150    0.1259 C.ar    1  UNL1        0.0000
     10 C           1.2038   -1.4347    0.1059 C.ar    1  UNL1        0.0000
     11 C           1.5993   -2.7773    0.0515 C.ar    1  UNL1        0.0000
     12 N           2.8583   -3.2638   -0.0375 N.ar    1  UNL1        0.0000
     13 C           3.8196   -2.3221   -0.1214 C.ar    1  UNL1        0.0000
     14 C           5.2116   -2.5154   -0.2748 C.ar    1  UNL1        0.0000
     15 C           5.7884   -1.2706   -0.3532 C.ar    1  UNL1        0.0000
     16 N           4.7845   -0.3419   -0.2495 N.ar    1  UNL1        0.0000
     17 C           3.5625   -0.9525   -0.0672 C.ar    1  UNL1        0.0000
     18 C           2.2477   -0.4747    0.1055 C.ar    1  UNL1        0.0000
     19 C           1.9115    0.9563    0.2661 C.ar    1  UNL1        0.0000
     20 C           2.7645    1.9776    0.5019 C.2     1  UNL1        0.0000
     21 C          -4.4231    0.2160    0.0449 C.ar    1  UNL1        0.0000
     22 N          -4.6892    1.5271    0.0794 N.ar    1  UNL1        0.0000
     23 C          -5.9836    1.8348    0.0492 C.ar    1  UNL1        0.0000
     24 N          -6.9937    0.9725   -0.0099 N.ar    1  UNL1        0.0000
     25 C          -6.6101   -0.3002   -0.0393 C.ar    1  UNL1        0.0000
     26 N          -5.3553   -0.7423   -0.0148 N.ar    1  UNL1        0.0000
     27 H           2.0273    4.2158    1.9972 H       1  UNL1        0.0000
     28 H           2.1911    4.5185   -0.4898 H       1  UNL1        0.0000
     29 H          -0.6467    3.2308    0.4918 H       1  UNL1        0.0000
     30 H          -2.2217    1.7873    0.1558 H       1  UNL1        0.0000
     31 H          -3.4008   -2.3266    0.0011 H       1  UNL1        0.0000
     32 H          -1.1086   -3.0170    0.0319 H       1  UNL1        0.0000
     33 H           0.8711   -3.5821    0.0752 H       1  UNL1        0.0000
     34 H           5.7219   -3.4661   -0.3390 H       1  UNL1        0.0000
     35 H           6.8171   -0.9653   -0.4903 H       1  UNL1        0.0000
     36 H           4.9266    0.6512   -0.3440 H       1  UNL1        0.0000
     37 H           3.8272    1.9691    0.6452 H       1  UNL1        0.0000
     38 H          -6.2383    2.8889    0.0754 H       1  UNL1        0.0000
     39 H          -7.3936   -1.0488   -0.0878 H       1  UNL1        0.0000
@<TRIPOS>BOND
     1     1     2    1
     2     2     3    2
     3     3     4   ar
     4     4     5   ar
     5     5     6   ar
     6     6     7   ar
     7     7     8   ar
     8     8     9   ar
     9     9    10   ar
    10    10    11   ar
    11    11    12   ar
    12    12    13   ar
    13    13    14   ar
    14    14    15   ar
    15    15    16   ar
    16    16    17   ar
    17    17    18   ar
    18    18    19   ar
    19    19    20    2
    20     6    21    1
    21    21    22   ar
    22    22    23   ar
    23    23    24   ar
    24    24    25   ar
    25    25    26   ar
    26    20     1    1
    27    26    21   ar
    28    19     3   ar
    29     9     4   ar
    30    18    10   ar
    31    17    13   ar
    32     1    27    1
    33     1    28    1
    34     2    29    1
    35     5    30    1
    36     7    31    1
    37     8    32    1
    38    11    33    1
    39    14    34    1
    40    15    35    1
    41    16    36    1
    42    20    37    1
    43    23    38    1
    44    25    39    1
