@<TRIPOS>MOLECULE
*****
 43 50 0 0 0
SMALL
GASTEIGER

@<TRIPOS>ATOM
      1 C           5.9931    3.1323   -0.0079 C.ar    1  UNL1       -0.0231
      2 C           6.9376    2.1039   -0.0015 C.ar    1  UNL1       -0.0465
      3 C           6.3400    0.8228    0.0167 C.ar    1  UNL1       -0.0032
      4 C           6.8752   -0.4149    0.0279 C.ar    1  UNL1       -0.0155
      5 S           5.5858   -1.5409    0.0483 S.2     1  UNL1       -0.0944
      6 C           4.3466   -0.3114    0.0412 C.ar    1  UNL1        0.0402
      7 C           2.9375   -0.6678    0.0535 C.ar    1  UNL1        0.0282
      8 C           2.4092   -1.9517    0.0712 C.ar    1  UNL1       -0.0380
      9 C           1.0011   -1.9301    0.0791 C.ar    1  UNL1       -0.0014
     10 C           0.1487   -3.0838    0.0973 C.ar    1  UNL1       -0.0020
     11 C           0.5762   -4.3808    0.1097 C.ar    1  UNL1       -0.0160
     12 S          -0.7923   -5.4220    0.1295 S.2     1  UNL1       -0.1038
     13 C          -1.8937   -4.0916    0.1206 C.ar    1  UNL1       -0.0160
     14 C          -1.2512   -2.8696    0.1029 C.ar    1  UNL1       -0.0025
     15 C          -1.9290   -1.6217    0.0925 C.ar    1  UNL1       -0.0080
     16 C          -3.3387   -1.4221    0.0984 C.ar    1  UNL1       -0.0457
     17 C          -3.9016   -0.1394    0.0869 C.ar    1  UNL1       -0.0166
     18 C          -5.3416    0.0330    0.0932 C.ar    1  UNL1       -0.0533
     19 C          -6.0227    1.2762    0.0829 C.ar    1  UNL1       -0.0504
     20 C          -5.1112    2.3187    0.0657 C.ar    1  UNL1        0.0205
     21 C          -5.3936    3.6580    0.0520 C.ar    1  UNL1        0.0994
     22 O          -4.2243    4.3691    0.0371 O.2     1  UNL1       -0.4698
     23 C          -3.1932    3.4678    0.0414 C.ar    1  UNL1        0.1000
     24 C          -3.6939    2.1913    0.0590 C.ar    1  UNL1        0.0276
     25 C          -2.9910    0.9656    0.0690 C.ar    1  UNL1       -0.0065
     26 C          -1.5871    0.7895    0.0629 C.ar    1  UNL1       -0.0445
     27 C          -1.0377   -0.5058    0.0746 C.ar    1  UNL1       -0.0024
     28 C           0.3947   -0.6870    0.0684 C.ar    1  UNL1        0.0283
     29 S           1.6644    0.4900    0.0475 S.2     1  UNL1       -0.0871
     30 C           4.9451    0.9322    0.0235 C.ar    1  UNL1        0.0346
     31 S           4.3113    2.6395    0.0075 S.2     1  UNL1       -0.0955
     32 H           6.1944    4.1949   -0.0213 H       1  UNL1        0.0694
     33 H           8.0037    2.2956   -0.0098 H       1  UNL1        0.0629
     34 H           7.9094   -0.7293    0.0255 H       1  UNL1        0.0700
     35 H           3.0157   -2.8479    0.0780 H       1  UNL1        0.0635
     36 H           1.5761   -4.7903    0.1086 H       1  UNL1        0.0700
     37 H          -2.9518   -4.3092    0.1292 H       1  UNL1        0.0700
     38 H          -4.0005   -2.2844    0.1121 H       1  UNL1        0.0630
     39 H          -5.9637   -0.8649    0.1071 H       1  UNL1        0.0624
     40 H          -7.0990    1.3691    0.0881 H       1  UNL1        0.0625
     41 H          -6.2980    4.2494    0.0504 H       1  UNL1        0.1035
     42 H          -2.2030    3.9004    0.0308 H       1  UNL1        0.1036
     43 H          -0.9473    1.6670    0.0491 H       1  UNL1        0.0630
@<TRIPOS>BOND
     1     1     2   ar
     2     2     3   ar
     3     3     4   ar
     4     4     5   ar
     5     5     6   ar
     6     6     7    1
     7     7     8   ar
     8     8     9   ar
     9     9    10   ar
    10    10    11   ar
    11    11    12   ar
    12    12    13   ar
    13    13    14   ar
    14    14    15   ar
    15    15    16   ar
    16    16    17   ar
    17    17    18   ar
    18    18    19   ar
    19    19    20   ar
    20    20    21   ar
    21    21    22   ar
    22    22    23   ar
    23    23    24   ar
    24    24    25   ar
    25    25    26   ar
    26    26    27   ar
    27    27    28   ar
    28    28    29   ar
    29     6    30   ar
    30    30    31   ar
    31    31     1   ar
    32    30     3   ar
    33    29     7   ar
    34    28     9   ar
    35    14    10   ar
    36    27    15   ar
    37    25    17   ar
    38    24    20   ar
    39     1    32    1
    40     2    33    1
    41     4    34    1
    42     8    35    1
    43    11    36    1
    44    13    37    1
    45    16    38    1
    46    18    39    1
    47    19    40    1
    48    21    41    1
    49    23    42    1
    50    26    43    1
