@<TRIPOS>MOLECULE
*****
 45 52 0 0 0
SMALL
GASTEIGER

@<TRIPOS>ATOM
      1 C           6.5740    1.0077   -1.3415 C.ar    1  UNL1       -0.0231
      2 C           7.1238    0.0433   -0.4884 C.ar    1  UNL1       -0.0465
      3 C           6.1354   -0.6408    0.2588 C.ar    1  UNL1       -0.0032
      4 C           6.1859   -1.6291    1.1799 C.ar    1  UNL1       -0.0155
      5 S           4.5703   -1.9816    1.6694 S.2     1  UNL1       -0.0949
      6 C           3.8956   -0.7830    0.6346 C.ar    1  UNL1        0.0342
      7 C           2.4744   -0.5415    0.5561 C.ar    1  UNL1       -0.0014
      8 C           1.5729   -1.4248   -0.0547 C.ar    1  UNL1       -0.0445
      9 C           0.1443   -1.1873   -0.1551 C.ar    1  UNL1       -0.0079
     10 C          -0.7518   -2.1302   -0.7281 C.ar    1  UNL1       -0.0025
     11 C          -0.3656   -3.3690   -1.1968 C.ar    1  UNL1       -0.0160
     12 S          -1.6821   -4.2820   -1.8026 S.2     1  UNL1       -0.1038
     13 C          -2.7893   -3.0260   -1.4466 C.ar    1  UNL1       -0.0160
     14 C          -2.1752   -1.9321   -0.8741 C.ar    1  UNL1       -0.0026
     15 C          -2.8680   -0.7452   -0.5132 C.ar    1  UNL1       -0.0085
     16 C          -4.2625   -0.5370   -0.7074 C.ar    1  UNL1       -0.0456
     17 C          -4.8549    0.6939   -0.4143 C.ar    1  UNL1       -0.0144
     18 C          -6.2239    0.9285   -0.6010 C.ar    1  UNL1       -0.0359
     19 C          -6.7280    2.1877   -0.3199 C.ar    1  UNL1        0.0281
     20 N          -5.9748    3.2136    0.1230 N.ar    1  UNL1       -0.2626
     21 C          -4.6560    2.9627    0.2959 C.ar    1  UNL1        0.0353
     22 C          -4.0407    1.7303    0.0537 C.ar    1  UNL1        0.0008
     23 C          -2.6585    1.5048    0.2538 C.ar    1  UNL1       -0.0442
     24 C          -2.0150    0.2598    0.0428 C.ar    1  UNL1       -0.0083
     25 C          -0.5621    0.0062    0.3083 C.ar    1  UNL1       -0.0013
     26 C           0.3923    0.8168    1.0348 C.ar    1  UNL1       -0.0020
     27 C           0.0591    1.8665    1.8649 C.ar    1  UNL1       -0.0160
     28 S           1.4209    2.6452    2.5591 S.2     1  UNL1       -0.1038
     29 C           2.4922    1.5029    1.8789 C.ar    1  UNL1       -0.0160
     30 C           1.8265    0.5576    1.1289 C.ar    1  UNL1       -0.0020
     31 C           4.8752   -0.1447   -0.0757 C.ar    1  UNL1        0.0341
     32 S           4.8216    1.1676   -1.3144 S.2     1  UNL1       -0.0955
     33 H           7.1146    1.6603   -2.0137 H       1  UNL1        0.0694
     34 H           8.1898   -0.1390   -0.4280 H       1  UNL1        0.0629
     35 H           7.0318   -2.1622    1.5904 H       1  UNL1        0.0700
     36 H           1.9927   -2.3347   -0.4804 H       1  UNL1        0.0630
     37 H           0.6141   -3.8224   -1.2235 H       1  UNL1        0.0700
     38 H          -3.8297   -3.1817   -1.6906 H       1  UNL1        0.0700
     39 H          -4.8851   -1.3325   -1.1070 H       1  UNL1        0.0630
     40 H          -6.8885    0.1517   -0.9636 H       1  UNL1        0.0639
     41 H          -7.7830    2.4104   -0.4520 H       1  UNL1        0.0830
     42 H          -4.0840    3.8150    0.6543 H       1  UNL1        0.0836
     43 H          -2.0703    2.3740    0.5288 H       1  UNL1        0.0630
     44 H          -0.9063    2.2430    2.1587 H       1  UNL1        0.0700
     45 H           3.5479    1.5772    2.1018 H       1  UNL1        0.0700
@<TRIPOS>BOND
     1     1     2   ar
     2     2     3   ar
     3     3     4   ar
     4     4     5   ar
     5     5     6   ar
     6     6     7    1
     7     7     8   ar
     8     8     9   ar
     9     9    10   ar
    10    10    11   ar
    11    11    12   ar
    12    12    13   ar
    13    13    14   ar
    14    14    15   ar
    15    15    16   ar
    16    16    17   ar
    17    17    18   ar
    18    18    19   ar
    19    19    20   ar
    20    20    21   ar
    21    21    22   ar
    22    22    23   ar
    23    23    24   ar
    24    24    25   ar
    25    25    26   ar
    26    26    27   ar
    27    27    28   ar
    28    28    29   ar
    29    29    30   ar
    30     6    31   ar
    31    31    32   ar
    32    32     1   ar
    33    31     3   ar
    34    30     7   ar
    35    25     9   ar
    36    30    26   ar
    37    14    10   ar
    38    24    15   ar
    39    22    17   ar
    40     1    33    1
    41     2    34    1
    42     4    35    1
    43     8    36    1
    44    11    37    1
    45    13    38    1
    46    16    39    1
    47    18    40    1
    48    19    41    1
    49    21    42    1
    50    23    43    1
    51    27    44    1
    52    29    45    1
