@<TRIPOS>MOLECULE
*****
 41 48 0 0 0
SMALL
GASTEIGER

@<TRIPOS>ATOM
      1 C           6.4340    0.2886   -1.3614 C.ar    1  UNL1        0.0932
      2 C           7.3045   -0.1204   -0.3447 C.ar    1  UNL1       -0.0156
      3 C           6.4672   -0.4814    0.7207 C.ar    1  UNL1        0.0278
      4 C           6.5515   -0.9501    1.9816 C.ar    1  UNL1       -0.0128
      5 S           4.9317   -1.1111    2.5871 S.2     1  UNL1       -0.0908
      6 C           4.1915   -0.5382    1.1128 C.ar    1  UNL1        0.0803
      7 C           2.7465   -0.4176    0.9371 C.ar    1  UNL1        0.0817
      8 C           2.1384    0.0324   -0.2180 C.ar    1  UNL1       -0.0252
      9 C           0.7252    0.1082   -0.2756 C.ar    1  UNL1        0.0144
     10 C           0.0809    0.5699   -1.4587 C.ar    1  UNL1        0.1083
     11 N           0.7181    0.9590   -2.5792 N.ar    1  UNL1       -0.1901
     12 S          -0.4320    1.4053   -3.6679 S.2     1  UNL1        0.1165
     13 N          -1.7864    1.1282   -2.7758 N.ar    1  UNL1       -0.1901
     14 C          -1.4227    0.6670   -1.5644 C.ar    1  UNL1        0.1088
     15 C          -2.3138    0.2999   -0.4769 C.ar    1  UNL1        0.0208
     16 C          -3.7913    0.3924   -0.5730 C.ar    1  UNL1       -0.0059
     17 C          -4.5298    0.8388   -1.7050 C.ar    1  UNL1       -0.0533
     18 C          -5.9317    0.9083   -1.7466 C.ar    1  UNL1       -0.0611
     19 C          -6.6823    0.5316   -0.6478 C.ar    1  UNL1       -0.0611
     20 C          -6.0265    0.0867    0.4888 C.ar    1  UNL1       -0.0519
     21 C          -4.6108    0.0191    0.5237 C.ar    1  UNL1        0.0110
     22 C          -3.9582   -0.4415    1.7031 C.ar    1  UNL1        0.1082
     23 N          -4.5814   -0.8340    2.8313 N.ar    1  UNL1       -0.1901
     24 S          -3.4169   -1.2761    3.9072 S.2     1  UNL1        0.1165
     25 N          -2.0735   -0.9926    2.9988 N.ar    1  UNL1       -0.1901
     26 C          -2.4576   -0.5329    1.7938 C.ar    1  UNL1        0.1089
     27 C          -1.5810   -0.1634    0.7012 C.ar    1  UNL1        0.0222
     28 C          -0.1056   -0.2579    0.8029 C.ar    1  UNL1        0.0123
     29 C           0.6461   -0.6963    1.9117 C.ar    1  UNL1        0.0367
     30 N           2.0032   -0.7813    1.9999 N.ar    1  UNL1       -0.2537
     31 C           5.1942   -0.2585    0.2500 C.ar    1  UNL1        0.1510
     32 O           5.0954    0.2161   -1.0251 O.2     1  UNL1       -0.4617
     33 H           6.6135    0.6521   -2.3650 H       1  UNL1        0.1030
     34 H           8.3833   -0.1416   -0.4001 H       1  UNL1        0.0655
     35 H           7.4093   -1.2066    2.5866 H       1  UNL1        0.0701
     36 H           2.7266    0.3281   -1.0805 H       1  UNL1        0.0646
     37 H          -4.0313    1.1557   -2.6154 H       1  UNL1        0.0624
     38 H          -6.4259    1.2606   -2.6493 H       1  UNL1        0.0618
     39 H          -7.7670    0.5833   -0.6743 H       1  UNL1        0.0618
     40 H          -6.6166   -0.2102    1.3545 H       1  UNL1        0.0624
     41 H           0.1813   -1.0198    2.8366 H       1  UNL1        0.0836
@<TRIPOS>BOND
     1     1     2   ar
     2     2     3   ar
     3     3     4   ar
     4     4     5   ar
     5     5     6   ar
     6     6     7    1
     7     7     8   ar
     8     8     9   ar
     9     9    10   ar
    10    10    11   ar
    11    11    12   ar
    12    12    13   ar
    13    13    14   ar
    14    14    15   ar
    15    15    16   ar
    16    16    17   ar
    17    17    18   ar
    18    18    19   ar
    19    19    20   ar
    20    20    21   ar
    21    21    22   ar
    22    22    23   ar
    23    23    24   ar
    24    24    25   ar
    25    25    26   ar
    26    26    27   ar
    27    27    28   ar
    28    28    29   ar
    29    29    30   ar
    30     6    31   ar
    31    31    32   ar
    32    32     1   ar
    33    31     3   ar
    34    30     7   ar
    35    28     9   ar
    36    14    10   ar
    37    27    15   ar
    38    21    16   ar
    39    26    22   ar
    40     1    33    1
    41     2    34    1
    42     4    35    1
    43     8    36    1
    44    17    37    1
    45    18    38    1
    46    19    39    1
    47    20    40    1
    48    29    41    1
