@<TRIPOS>MOLECULE
*****
 42 49 0 0 0
SMALL
GASTEIGER

@<TRIPOS>ATOM
      1 C           5.6031   -1.5942    1.0440 C.ar    1  UNL1        0.0028
      2 C           6.4878   -0.6414    0.4929 C.ar    1  UNL1       -0.0361
      3 C           5.6923    0.3703   -0.0987 C.ar    1  UNL1        0.0073
      4 C           5.7957    1.5290   -0.7808 C.ar    1  UNL1       -0.0145
      5 S           4.1805    2.0836   -1.1216 S.2     1  UNL1       -0.0939
      6 C           3.4352    0.7434   -0.3163 C.ar    1  UNL1        0.0438
      7 C           2.0061    0.5802   -0.2259 C.ar    1  UNL1        0.0005
      8 C           1.1527    0.4055   -1.3308 C.ar    1  UNL1       -0.0429
      9 C          -0.2853    0.2209   -1.2250 C.ar    1  UNL1        0.0136
     10 C          -1.0631    0.0465   -2.4088 C.ar    1  UNL1        0.1083
     11 N          -0.5855    0.0328   -3.6673 N.ar    1  UNL1       -0.1901
     12 S          -1.8722   -0.1947   -4.6757 S.2     1  UNL1        0.1165
     13 N          -3.0938   -0.2931   -3.5724 N.ar    1  UNL1       -0.1901
     14 C          -2.5591   -0.1486   -2.3457 C.ar    1  UNL1        0.1107
     15 C          -3.2487   -0.1669   -1.0948 C.ar    1  UNL1        0.0434
     16 C          -4.6504   -0.3466   -0.9684 C.ar    1  UNL1        0.0321
     17 S          -5.8612   -0.5787   -2.1911 S.2     1  UNL1       -0.0959
     18 C          -7.1278   -0.6816   -1.0646 C.ar    1  UNL1       -0.0231
     19 C          -6.6742   -0.5469    0.2227 C.ar    1  UNL1       -0.0455
     20 C          -5.2526   -0.3540    0.2948 C.ar    1  UNL1        0.0080
     21 C          -4.4312   -0.1810    1.4086 C.ar    1  UNL1        0.0365
     22 N          -3.0977   -0.0113    1.2807 N.ar    1  UNL1       -0.2536
     23 C          -2.4822    0.0042    0.0865 C.ar    1  UNL1        0.0826
     24 C          -1.0541    0.1911    0.0062 C.ar    1  UNL1        0.0194
     25 C          -0.1367    0.3828    1.0869 C.ar    1  UNL1        0.0098
     26 C          -0.4267    0.4425    2.4312 C.ar    1  UNL1        0.0101
     27 N           0.7456    0.6651    3.1160 N.ar    1  UNL1       -0.3659
     28 C           1.7967    0.7428    2.2350 C.ar    1  UNL1        0.0100
     29 C           1.2866    0.5632    0.9702 C.ar    1  UNL1        0.0083
     30 C           4.4105   -0.0645    0.1541 C.ar    1  UNL1        0.0614
     31 N           4.2713   -1.2420    0.8324 N.ar    1  UNL1       -0.3598
     32 H           5.8227   -2.5112    1.5757 H       1  UNL1        0.0807
     33 H           7.5676   -0.6987    0.5263 H       1  UNL1        0.0639
     34 H           6.6643    2.0817   -1.1071 H       1  UNL1        0.0700
     35 H           1.6029    0.4021   -2.3261 H       1  UNL1        0.0631
     36 H          -8.1453   -0.8358   -1.3974 H       1  UNL1        0.0694
     37 H          -7.3289   -0.5839    1.0852 H       1  UNL1        0.0629
     38 H          -4.8146   -0.1737    2.4237 H       1  UNL1        0.0836
     39 H          -1.3563    0.3615    2.9777 H       1  UNL1        0.0813
     40 H           0.8180    0.7698    4.1201 H       1  UNL1        0.1648
     41 H           2.7996    0.9323    2.5953 H       1  UNL1        0.0813
     42 H           3.4084   -1.7027    1.0978 H       1  UNL1        0.1654
@<TRIPOS>BOND
     1     1     2   ar
     2     2     3   ar
     3     3     4   ar
     4     4     5   ar
     5     5     6   ar
     6     6     7    1
     7     7     8   ar
     8     8     9   ar
     9     9    10   ar
    10    10    11   ar
    11    11    12   ar
    12    12    13   ar
    13    13    14   ar
    14    14    15   ar
    15    15    16   ar
    16    16    17   ar
    17    17    18   ar
    18    18    19   ar
    19    19    20   ar
    20    20    21   ar
    21    21    22   ar
    22    22    23   ar
    23    23    24   ar
    24    24    25   ar
    25    25    26   ar
    26    26    27   ar
    27    27    28   ar
    28    28    29   ar
    29     6    30   ar
    30    30    31   ar
    31    31     1   ar
    32    30     3   ar
    33    29     7   ar
    34    24     9   ar
    35    29    25   ar
    36    14    10   ar
    37    23    15   ar
    38    20    16   ar
    39     1    32    1
    40     2    33    1
    41     4    34    1
    42     8    35    1
    43    18    36    1
    44    19    37    1
    45    21    38    1
    46    26    39    1
    47    27    40    1
    48    28    41    1
    49    31    42    1
