@<TRIPOS>MOLECULE
*****
 42 49 0 0 0
SMALL
GASTEIGER

@<TRIPOS>ATOM
      1 C          -5.8413    0.8190    1.2292 C.ar    1  UNL1        0.0028
      2 C          -6.6206   -0.1817    0.6091 C.ar    1  UNL1       -0.0361
      3 C          -5.7271   -1.0287   -0.0903 C.ar    1  UNL1        0.0073
      4 C          -5.7114   -2.1330   -0.8641 C.ar    1  UNL1       -0.0145
      5 S          -4.0519   -2.4626   -1.2741 S.2     1  UNL1       -0.0939
      6 C          -3.4525   -1.0910   -0.4031 C.ar    1  UNL1        0.0439
      7 C          -2.0535   -0.7569   -0.3425 C.ar    1  UNL1        0.0021
      8 C          -1.0643   -1.5486    0.2578 C.ar    1  UNL1       -0.0429
      9 C           0.3432   -1.1870    0.3183 C.ar    1  UNL1        0.0122
     10 C           1.2354   -2.1052    0.9558 C.ar    1  UNL1        0.1082
     11 N           0.8941   -3.2850    1.5102 N.ar    1  UNL1       -0.1901
     12 S           2.2764   -3.9706    2.1000 S.2     1  UNL1        0.1165
     13 N           3.3776   -2.8081    1.6936 N.ar    1  UNL1       -0.1901
     14 C           2.7044   -1.8222    1.0686 C.ar    1  UNL1        0.1082
     15 C           3.2722   -0.6125    0.5540 C.ar    1  UNL1        0.0115
     16 C           4.6663   -0.3943    0.6995 C.ar    1  UNL1       -0.0437
     17 C           5.2575    0.7915    0.2262 C.ar    1  UNL1       -0.0102
     18 C           6.6198    1.2389    0.2548 C.ar    1  UNL1       -0.0470
     19 C           6.7844    2.4809   -0.3120 C.ar    1  UNL1       -0.0232
     20 S           5.3096    3.1213   -0.8794 S.2     1  UNL1       -0.0966
     21 C           4.4254    1.7287   -0.3747 C.ar    1  UNL1        0.0199
     22 C           3.0341    1.5063   -0.5196 C.ar    1  UNL1       -0.0390
     23 C           2.4030    0.3206   -0.0741 C.ar    1  UNL1       -0.0062
     24 C           0.9596    0.0278   -0.2107 C.ar    1  UNL1        0.0028
     25 C          -0.1022    0.7732   -0.8363 C.ar    1  UNL1        0.0288
     26 C          -0.0429    1.9548   -1.5392 C.ar    1  UNL1        0.1000
     27 O          -1.2799    2.3206   -1.9880 O.2     1  UNL1       -0.4698
     28 C          -2.1578    1.3610   -1.5958 C.ar    1  UNL1        0.1000
     29 C          -1.4940    0.3940   -0.8851 C.ar    1  UNL1        0.0287
     30 C          -4.5004   -0.4587    0.1690 C.ar    1  UNL1        0.0614
     31 N          -4.4833    0.6539    0.9622 N.ar    1  UNL1       -0.3598
     32 H          -6.1542    1.6468    1.8530 H       1  UNL1        0.0807
     33 H          -7.6973   -0.2656    0.6749 H       1  UNL1        0.0639
     34 H          -6.5166   -2.7643   -1.2106 H       1  UNL1        0.0700
     35 H          -1.3793   -2.4930    0.7089 H       1  UNL1        0.0631
     36 H           5.2935   -1.1411    1.1831 H       1  UNL1        0.0630
     37 H           7.4388    0.6687    0.6763 H       1  UNL1        0.0629
     38 H           7.7014    3.0443   -0.4182 H       1  UNL1        0.0694
     39 H           2.4697    2.3036   -0.9773 H       1  UNL1        0.0635
     40 H           0.7262    2.6490   -1.8344 H       1  UNL1        0.1036
     41 H          -3.1828    1.5119   -1.9072 H       1  UNL1        0.1036
     42 H          -3.6792    1.1931    1.2609 H       1  UNL1        0.1654
@<TRIPOS>BOND
     1     1     2   ar
     2     2     3   ar
     3     3     4   ar
     4     4     5   ar
     5     5     6   ar
     6     6     7    1
     7     7     8   ar
     8     8     9   ar
     9     9    10   ar
    10    10    11   ar
    11    11    12   ar
    12    12    13   ar
    13    13    14   ar
    14    14    15   ar
    15    15    16   ar
    16    16    17   ar
    17    17    18   ar
    18    18    19   ar
    19    19    20   ar
    20    20    21   ar
    21    21    22   ar
    22    22    23   ar
    23    23    24   ar
    24    24    25   ar
    25    25    26   ar
    26    26    27   ar
    27    27    28   ar
    28    28    29   ar
    29     6    30   ar
    30    30    31   ar
    31    31     1   ar
    32    30     3   ar
    33    29     7   ar
    34    24     9   ar
    35    29    25   ar
    36    14    10   ar
    37    23    15   ar
    38    21    17   ar
    39     1    32    1
    40     2    33    1
    41     4    34    1
    42     8    35    1
    43    16    36    1
    44    18    37    1
    45    19    38    1
    46    22    39    1
    47    26    40    1
    48    28    41    1
    49    31    42    1
