@<TRIPOS>MOLECULE
*****
 40 46 0 0 0
SMALL
GASTEIGER

@<TRIPOS>ATOM
      1 C           6.3794   -2.0042   -0.0898 C.ar    1  UNL1        0.0028
      2 C           7.2249   -0.8761   -0.0094 C.ar    1  UNL1       -0.0361
      3 C           6.3887    0.2626    0.0976 C.ar    1  UNL1        0.0073
      4 C           6.4473    1.6038    0.2076 C.ar    1  UNL1       -0.0145
      5 S           4.8140    2.1920    0.2811 S.2     1  UNL1       -0.0924
      6 C           4.1046    0.6056    0.1607 C.ar    1  UNL1        0.0614
      7 C           2.6630    0.3358    0.1603 C.ar    1  UNL1        0.0801
      8 C           1.6973    1.3355    0.2577 C.ar    1  UNL1       -0.0273
      9 C           0.3360    0.9910    0.2499 C.ar    1  UNL1       -0.0124
     10 C          -0.6817    1.9524    0.3449 C.ar    1  UNL1       -0.0279
     11 C          -2.0298    1.6178    0.3377 C.ar    1  UNL1        0.0722
     12 N          -2.9051    2.6245    0.4343 N.ar    1  UNL1       -0.2543
     13 C          -4.2247    2.3390    0.4308 C.ar    1  UNL1        0.0360
     14 C          -4.7677    1.0672    0.3338 C.ar    1  UNL1        0.0030
     15 C          -6.1822    0.9104    0.3423 C.ar    1  UNL1       -0.0504
     16 C          -6.8304   -0.3272    0.2498 C.ar    1  UNL1       -0.0329
     17 C          -5.9870   -1.4497    0.1441 C.ar    1  UNL1        0.1005
     18 N          -6.4124   -2.7178    0.0457 N.ar    1  UNL1       -0.1908
     19 S          -5.0580   -3.6632   -0.0531 S.2     1  UNL1        0.1165
     20 N          -3.8751   -2.5085    0.0244 N.ar    1  UNL1       -0.1901
     21 C          -4.4791   -1.3102    0.1327 C.ar    1  UNL1        0.1082
     22 C          -3.8380   -0.0100    0.2305 C.ar    1  UNL1        0.0209
     23 C          -2.4187    0.2658    0.2318 C.ar    1  UNL1        0.0108
     24 C          -1.3872   -0.7048    0.1358 C.ar    1  UNL1       -0.0427
     25 C          -0.0250   -0.3537    0.1441 C.ar    1  UNL1        0.0010
     26 C           1.0077   -1.2866    0.0512 C.ar    1  UNL1        0.0360
     27 N           2.3257   -0.9765    0.0568 N.ar    1  UNL1       -0.2538
     28 C           5.1249   -0.2819    0.0717 C.ar    1  UNL1        0.0629
     29 N           5.0371   -1.6408   -0.0394 N.ar    1  UNL1       -0.3597
     30 H           6.6341   -3.0521   -0.1804 H       1  UNL1        0.0807
     31 H           8.3061   -0.9039   -0.0281 H       1  UNL1        0.0639
     32 H           7.2953    2.2715    0.2500 H       1  UNL1        0.0700
     33 H           1.9829    2.3793    0.3397 H       1  UNL1        0.0645
     34 H          -0.4206    3.0067    0.4282 H       1  UNL1        0.0645
     35 H          -4.8590    3.2198    0.5133 H       1  UNL1        0.0836
     36 H          -6.8150    1.7969    0.4253 H       1  UNL1        0.0625
     37 H          -7.9095   -0.4215    0.2584 H       1  UNL1        0.0640
     38 H          -1.6344   -1.7594    0.0523 H       1  UNL1        0.0631
     39 H           0.7958   -2.3499   -0.0335 H       1  UNL1        0.0836
     40 H           4.1756   -2.1798   -0.0708 H       1  UNL1        0.1654
@<TRIPOS>BOND
     1     1     2   ar
     2     2     3   ar
     3     3     4   ar
     4     4     5   ar
     5     5     6   ar
     6     6     7    1
     7     7     8   ar
     8     8     9   ar
     9     9    10   ar
    10    10    11   ar
    11    11    12   ar
    12    12    13   ar
    13    13    14   ar
    14    14    15   ar
    15    15    16   ar
    16    16    17   ar
    17    17    18   ar
    18    18    19   ar
    19    19    20   ar
    20    20    21   ar
    21    21    22   ar
    22    22    23   ar
    23    23    24   ar
    24    24    25   ar
    25    25    26   ar
    26    26    27   ar
    27     6    28   ar
    28    28    29   ar
    29    29     1   ar
    30    28     3   ar
    31    27     7   ar
    32    25     9   ar
    33    23    11   ar
    34    22    14   ar
    35    21    17   ar
    36     1    30    1
    37     2    31    1
    38     4    32    1
    39     8    33    1
    40    10    34    1
    41    13    35    1
    42    15    36    1
    43    16    37    1
    44    24    38    1
    45    26    39    1
    46    29    40    1
