@<TRIPOS>MOLECULE
*****
 44 51 0 0 0
SMALL
GASTEIGER

@<TRIPOS>ATOM
      1 C          -6.5135   -0.2533    1.9977 C.ar    1  UNL1        0.0932
      2 C          -7.2657   -1.1579    1.2363 C.ar    1  UNL1       -0.0156
      3 C          -6.3962   -1.5856    0.2211 C.ar    1  UNL1        0.0278
      4 C          -6.3688   -2.4093   -0.8481 C.ar    1  UNL1       -0.0129
      5 S          -4.7779   -2.3048   -1.5537 S.2     1  UNL1       -0.0923
      6 C          -4.2218   -1.1468   -0.3918 C.ar    1  UNL1        0.0627
      7 C          -2.8867   -0.5989   -0.3954 C.ar    1  UNL1        0.0011
      8 C          -1.7308   -1.3890   -0.2275 C.ar    1  UNL1       -0.0450
      9 C          -0.3908   -0.8876   -0.2219 C.ar    1  UNL1       -0.0156
     10 C           0.6361   -1.7994   -0.0390 C.ar    1  UNL1       -0.0534
     11 C           1.9705   -1.3940   -0.0194 C.ar    1  UNL1       -0.0523
     12 C           2.3433   -0.0390   -0.1834 C.ar    1  UNL1       -0.0018
     13 C           1.3105    0.9073   -0.3713 C.ar    1  UNL1        0.0288
     14 S           1.9924    2.4955   -0.5473 S.2     1  UNL1       -0.0876
     15 C           3.6114    1.9799   -0.3863 C.ar    1  UNL1        0.0211
     16 C           4.7886    2.7904   -0.4301 C.ar    1  UNL1       -0.0468
     17 C           6.0772    2.2483   -0.2839 C.ar    1  UNL1       -0.0515
     18 C           6.0349    0.8787   -0.1004 C.ar    1  UNL1        0.0001
     19 C           7.1486    0.0911    0.0692 C.ar    1  UNL1        0.0094
     20 N           6.7152   -1.2115    0.2216 N.ar    1  UNL1       -0.3659
     21 C           5.3352   -1.2683    0.1516 C.ar    1  UNL1        0.0100
     22 C           4.9238    0.0182   -0.0461 C.ar    1  UNL1        0.0082
     23 C           3.6147    0.6092   -0.2001 C.ar    1  UNL1        0.0061
     24 C          -0.0603    0.5026   -0.3941 C.ar    1  UNL1        0.0047
     25 C          -1.2246    1.3015   -0.5731 C.ar    1  UNL1       -0.0015
     26 C          -1.2631    2.6636   -0.7748 C.ar    1  UNL1       -0.0160
     27 S          -2.8547    3.2777   -0.9681 S.2     1  UNL1       -0.1038
     28 C          -3.5415    1.7248   -0.7866 C.ar    1  UNL1       -0.0160
     29 C          -2.5832    0.7592   -0.5712 C.ar    1  UNL1       -0.0019
     30 C          -5.2295   -0.9037    0.4699 C.ar    1  UNL1        0.1495
     31 O          -5.2199   -0.0672    1.5449 O.2     1  UNL1       -0.4618
     32 H          -6.7552    0.3289    2.8776 H       1  UNL1        0.1030
     33 H          -8.2913   -1.4438    1.4195 H       1  UNL1        0.0655
     34 H          -7.1290   -3.0539   -1.2654 H       1  UNL1        0.0701
     35 H          -1.8801   -2.4616   -0.0828 H       1  UNL1        0.0630
     36 H           0.4239   -2.8590    0.0946 H       1  UNL1        0.0624
     37 H           2.7240   -2.1590    0.1282 H       1  UNL1        0.0624
     38 H           4.6850    3.8638   -0.5815 H       1  UNL1        0.0629
     39 H           6.9752    2.8497   -0.3149 H       1  UNL1        0.0624
     40 H           8.2048    0.3230    0.0972 H       1  UNL1        0.0813
     41 H           7.3207   -2.0095    0.3641 H       1  UNL1        0.1648
     42 H           4.8340   -2.2174    0.2521 H       1  UNL1        0.0813
     43 H          -0.4699    3.3879   -0.8332 H       1  UNL1        0.0700
     44 H          -4.6157    1.6191   -0.8457 H       1  UNL1        0.0700
@<TRIPOS>BOND
     1     1     2   ar
     2     2     3   ar
     3     3     4   ar
     4     4     5   ar
     5     5     6   ar
     6     6     7    1
     7     7     8   ar
     8     8     9   ar
     9     9    10   ar
    10    10    11   ar
    11    11    12   ar
    12    12    13   ar
    13    13    14   ar
    14    14    15   ar
    15    15    16   ar
    16    16    17   ar
    17    17    18   ar
    18    18    19   ar
    19    19    20   ar
    20    20    21   ar
    21    21    22   ar
    22    22    23   ar
    23    13    24   ar
    24    24    25   ar
    25    25    26   ar
    26    26    27   ar
    27    27    28   ar
    28    28    29   ar
    29     6    30   ar
    30    30    31   ar
    31    31     1   ar
    32    30     3   ar
    33    29     7   ar
    34    24     9   ar
    35    29    25   ar
    36    23    12   ar
    37    23    15   ar
    38    22    18   ar
    39     1    32    1
    40     2    33    1
    41     4    34    1
    42     8    35    1
    43    10    36    1
    44    11    37    1
    45    16    38    1
    46    17    39    1
    47    19    40    1
    48    20    41    1
    49    21    42    1
    50    26    43    1
    51    28    44    1
