@<TRIPOS>MOLECULE
*****
 48 55 0 0 0
SMALL
GASTEIGER

@<TRIPOS>ATOM
      1 C          -7.1215   -1.6915   -0.2442 C.ar    1  UNL1        0.0028
      2 C          -7.9534   -0.6712    0.2668 C.ar    1  UNL1       -0.0361
      3 C          -7.1054    0.3777    0.7008 C.ar    1  UNL1        0.0073
      4 C          -7.1480    1.6014    1.2624 C.ar    1  UNL1       -0.0145
      5 S          -5.5095    2.1558    1.4280 S.2     1  UNL1       -0.0924
      6 C          -4.8198    0.7155    0.7327 C.ar    1  UNL1        0.0614
      7 C          -3.3845    0.4840    0.5500 C.ar    1  UNL1        0.0801
      8 C          -2.4053    1.3937    0.9134 C.ar    1  UNL1       -0.0274
      9 C          -1.0500    1.0878    0.7010 C.ar    1  UNL1       -0.0138
     10 C          -0.0879    2.0139    1.0728 C.ar    1  UNL1       -0.0533
     11 C           1.2743    1.7620    0.8848 C.ar    1  UNL1       -0.0528
     12 C           1.7993    0.5884    0.3201 C.ar    1  UNL1       -0.0083
     13 C           3.2895    0.3938    0.1513 C.ar    1  UNL1       -0.0004
     14 C           4.4258    1.2371    0.4759 C.ar    1  UNL1        0.0077
     15 C           4.4552    2.4922    1.0480 C.ar    1  UNL1        0.0100
     16 N           5.7694    2.9044    1.1660 N.ar    1  UNL1       -0.3659
     17 C           6.6094    1.9401    0.6803 C.ar    1  UNL1        0.0094
     18 C           5.8137    0.9094    0.2518 C.ar    1  UNL1        0.0000
     19 C           6.3297   -0.2428   -0.3025 C.ar    1  UNL1       -0.0520
     20 C           5.2868   -1.1078   -0.6420 C.ar    1  UNL1       -0.0527
     21 C           3.8716   -0.8117   -0.4309 C.ar    1  UNL1       -0.0075
     22 C           2.8576   -1.7182   -0.7910 C.ar    1  UNL1        0.0077
     23 C           3.0721   -2.9518   -1.3663 C.ar    1  UNL1        0.0100
     24 N           1.8505   -3.5316   -1.5659 N.ar    1  UNL1       -0.3659
     25 C           0.8585   -2.6847   -1.1257 C.ar    1  UNL1        0.0100
     26 C           1.4413   -1.5363   -0.6320 C.ar    1  UNL1        0.0083
     27 C           0.7936   -0.3851   -0.0710 C.ar    1  UNL1        0.0010
     28 C          -0.6468   -0.1278    0.1237 C.ar    1  UNL1        0.0086
     29 C          -1.7341   -0.9613   -0.1991 C.ar    1  UNL1        0.0366
     30 N          -3.0577   -0.6995   -0.0085 N.ar    1  UNL1       -0.2537
     31 C          -5.8493   -0.1055    0.4126 C.ar    1  UNL1        0.0629
     32 N          -5.7767   -1.3447   -0.1577 N.ar    1  UNL1       -0.3597
     33 H          -7.3877   -2.6508   -0.6684 H       1  UNL1        0.0807
     34 H          -9.0337   -0.7085    0.3076 H       1  UNL1        0.0639
     35 H          -7.9872    2.2018    1.5818 H       1  UNL1        0.0700
     36 H          -2.6771    2.3438    1.3623 H       1  UNL1        0.0645
     37 H          -0.3750    2.9636    1.5224 H       1  UNL1        0.0624
     38 H           1.9213    2.5579    1.2140 H       1  UNL1        0.0624
     39 H           3.7057    3.1774    1.4012 H       1  UNL1        0.0813
     40 H           6.0634    3.7908    1.5554 H       1  UNL1        0.1648
     41 H           7.6820    2.0787    0.6862 H       1  UNL1        0.0813
     42 H           7.3739   -0.4669   -0.4608 H       1  UNL1        0.0624
     43 H           5.5694   -2.0578   -1.0914 H       1  UNL1        0.0624
     44 H           3.9691   -3.4804   -1.6560 H       1  UNL1        0.0813
     45 H           1.6969   -4.4446   -1.9751 H       1  UNL1        0.1648
     46 H          -0.1520   -3.0344   -1.2314 H       1  UNL1        0.0813
     47 H          -1.5958   -1.9302   -0.6495 H       1  UNL1        0.0836
     48 H          -4.9217   -1.8264   -0.4237 H       1  UNL1        0.1654
@<TRIPOS>BOND
     1     1     2   ar
     2     2     3   ar
     3     3     4   ar
     4     4     5   ar
     5     5     6   ar
     6     6     7    1
     7     7     8   ar
     8     8     9   ar
     9     9    10   ar
    10    10    11   ar
    11    11    12   ar
    12    12    13   ar
    13    13    14   ar
    14    14    15   ar
    15    15    16   ar
    16    16    17   ar
    17    17    18   ar
    18    18    19   ar
    19    19    20   ar
    20    20    21   ar
    21    21    22   ar
    22    22    23   ar
    23    23    24   ar
    24    24    25   ar
    25    25    26   ar
    26    26    27   ar
    27    27    28   ar
    28    28    29   ar
    29    29    30   ar
    30     6    31   ar
    31    31    32   ar
    32    32     1   ar
    33    31     3   ar
    34    30     7   ar
    35    28     9   ar
    36    27    12   ar
    37    21    13   ar
    38    26    22   ar
    39    18    14   ar
    40     1    33    1
    41     2    34    1
    42     4    35    1
    43     8    36    1
    44    10    37    1
    45    11    38    1
    46    15    39    1
    47    16    40    1
    48    17    41    1
    49    19    42    1
    50    20    43    1
    51    23    44    1
    52    24    45    1
    53    25    46    1
    54    29    47    1
    55    32    48    1
