@<TRIPOS>MOLECULE
*****
 45 52 0 0 0
SMALL
GASTEIGER

@<TRIPOS>ATOM
      1 C          -6.1970   -1.9487    1.1863 C.ar    1  UNL1        0.0932
      2 C          -7.1422   -1.1943    0.4785 C.ar    1  UNL1       -0.0156
      3 C          -6.3890   -0.2475   -0.2328 C.ar    1  UNL1        0.0278
      4 C          -6.5524    0.7771   -1.0962 C.ar    1  UNL1       -0.0129
      5 S          -4.9707    1.4038   -1.4758 S.2     1  UNL1       -0.0923
      6 C          -4.1566    0.2718   -0.4473 C.ar    1  UNL1        0.0627
      7 C          -2.7233    0.2310   -0.2848 C.ar    1  UNL1        0.0011
      8 C          -1.8184    0.0925   -1.3577 C.ar    1  UNL1       -0.0451
      9 C          -0.3881    0.0424   -1.2328 C.ar    1  UNL1       -0.0161
     10 C           0.3638   -0.0055   -2.4032 C.ar    1  UNL1       -0.0534
     11 C           1.7667   -0.0273   -2.3932 C.ar    1  UNL1       -0.0528
     12 C           2.5370   -0.1145   -1.2187 C.ar    1  UNL1       -0.0074
     13 C           4.0243   -0.1780   -1.2811 C.ar    1  UNL1        0.0086
     14 C           4.7876   -0.0088   -2.4517 C.ar    1  UNL1        0.0359
     15 N           6.1452   -0.0630   -2.5610 N.ar    1  UNL1       -0.2626
     16 C           6.8430   -0.3050   -1.4374 C.ar    1  UNL1        0.0282
     17 C           6.2520   -0.4959   -0.2085 C.ar    1  UNL1       -0.0352
     18 C           4.8438   -0.4257   -0.1426 C.ar    1  UNL1       -0.0037
     19 C           4.0599   -0.6336    1.0024 C.ar    1  UNL1        0.0283
     20 C           4.4995   -1.0259    2.2412 C.ar    1  UNL1        0.1000
     21 O           3.4299   -1.2570    3.0521 O.2     1  UNL1       -0.4698
     22 C           2.3073   -0.9980    2.3208 C.ar    1  UNL1        0.1000
     23 C           2.6402   -0.5233    1.0741 C.ar    1  UNL1        0.0287
     24 C           1.7699   -0.1691    0.0045 C.ar    1  UNL1        0.0018
     25 C           0.3189    0.0566    0.0106 C.ar    1  UNL1       -0.0012
     26 C          -0.6058    0.3500    1.0753 C.ar    1  UNL1       -0.0020
     27 C          -0.2306    0.8082    2.3187 C.ar    1  UNL1       -0.0160
     28 S          -1.5659    1.0602    3.3644 S.2     1  UNL1       -0.1038
     29 C          -2.6844    0.7245    2.1134 C.ar    1  UNL1       -0.0160
     30 C          -2.0518    0.4128    0.9299 C.ar    1  UNL1       -0.0019
     31 C          -5.0888   -0.5227    0.1162 C.ar    1  UNL1        0.1495
     32 O          -4.8869   -1.5548    0.9822 O.2     1  UNL1       -0.4618
     33 H          -6.2999   -2.7859    1.8648 H       1  UNL1        0.1030
     34 H          -8.2128   -1.3381    0.4967 H       1  UNL1        0.0655
     35 H          -7.4461    1.2010   -1.5313 H       1  UNL1        0.0701
     36 H          -2.2459    0.0190   -2.3606 H       1  UNL1        0.0630
     37 H          -0.1320    0.0084   -3.3742 H       1  UNL1        0.0624
     38 H           2.2398   -0.0258   -3.3728 H       1  UNL1        0.0624
     39 H           4.3174    0.2038   -3.4074 H       1  UNL1        0.0836
     40 H           7.9215   -0.3445   -1.5573 H       1  UNL1        0.0830
     41 H           6.8610   -0.6939    0.6648 H       1  UNL1        0.0639
     42 H           5.4644   -1.2305    2.6826 H       1  UNL1        0.1036
     43 H           1.3833   -1.2282    2.8314 H       1  UNL1        0.1036
     44 H           0.7536    1.0369    2.6981 H       1  UNL1        0.0700
     45 H          -3.7416    0.8186    2.3192 H       1  UNL1        0.0700
@<TRIPOS>BOND
     1     1     2   ar
     2     2     3   ar
     3     3     4   ar
     4     4     5   ar
     5     5     6   ar
     6     6     7    1
     7     7     8   ar
     8     8     9   ar
     9     9    10   ar
    10    10    11   ar
    11    11    12   ar
    12    12    13   ar
    13    13    14   ar
    14    14    15   ar
    15    15    16   ar
    16    16    17   ar
    17    17    18   ar
    18    18    19   ar
    19    19    20   ar
    20    20    21   ar
    21    21    22   ar
    22    22    23   ar
    23    23    24   ar
    24    24    25   ar
    25    25    26   ar
    26    26    27   ar
    27    27    28   ar
    28    28    29   ar
    29    29    30   ar
    30     6    31   ar
    31    31    32   ar
    32    32     1   ar
    33    31     3   ar
    34    30     7   ar
    35    25     9   ar
    36    30    26   ar
    37    24    12   ar
    38    18    13   ar
    39    23    19   ar
    40     1    33    1
    41     2    34    1
    42     4    35    1
    43     8    36    1
    44    10    37    1
    45    11    38    1
    46    14    39    1
    47    16    40    1
    48    17    41    1
    49    20    42    1
    50    22    43    1
    51    27    44    1
    52    29    45    1
