@<TRIPOS>MOLECULE
*****
 39 45 0 0 0
SMALL
GASTEIGER

@<TRIPOS>ATOM
      1 C           5.9080   -0.5754    2.2084 C.ar    1  UNL1       -0.0231
      2 C           6.5322   -0.9210    1.0040 C.ar    1  UNL1       -0.0465
      3 C           5.6212   -0.9772   -0.0778 C.ar    1  UNL1       -0.0032
      4 C           5.7600   -1.2535   -1.3939 C.ar    1  UNL1       -0.0155
      5 S           4.2069   -1.1197   -2.1309 S.2     1  UNL1       -0.0949
      6 C           3.4323   -0.7195   -0.6457 C.ar    1  UNL1        0.0357
      7 C           2.0109   -0.4667   -0.5588 C.ar    1  UNL1        0.0185
      8 C           1.3937    0.6462   -1.1425 C.ar    1  UNL1       -0.0436
      9 C           0.0042    0.9188   -1.0657 C.ar    1  UNL1       -0.0145
     10 C          -0.4427    2.0466   -1.7511 C.ar    1  UNL1       -0.0534
     11 C          -1.7880    2.4128   -1.7792 C.ar    1  UNL1       -0.0534
     12 C          -2.7631    1.7071   -1.0802 C.ar    1  UNL1       -0.0166
     13 C          -4.1148    2.2044   -1.1879 C.ar    1  UNL1       -0.0534
     14 C          -5.2358    1.6707   -0.5317 C.ar    1  UNL1       -0.0520
     15 C          -4.8442    0.6185    0.2675 C.ar    1  UNL1        0.0000
     16 C          -5.6986   -0.0641    1.0940 C.ar    1  UNL1        0.0094
     17 N          -4.9349   -0.9816    1.7690 N.ar    1  UNL1       -0.3659
     18 C          -3.6137   -0.8682    1.3871 C.ar    1  UNL1        0.0100
     19 C          -3.5186    0.0843    0.4002 C.ar    1  UNL1        0.0077
     20 C          -2.3533    0.5555   -0.3035 C.ar    1  UNL1        0.0011
     21 C          -0.9479    0.1141   -0.3513 C.ar    1  UNL1        0.0187
     22 C          -0.3448   -1.0927    0.2031 C.ar    1  UNL1        0.1088
     23 N          -0.9763   -2.1097    0.8127 N.ar    1  UNL1       -0.1901
     24 S           0.1424   -3.2344    1.2561 S.2     1  UNL1        0.1165
     25 N           1.5147   -2.5315    0.6762 N.ar    1  UNL1       -0.1901
     26 C           1.1491   -1.3710    0.1013 C.ar    1  UNL1        0.1087
     27 C           4.3388   -0.6712    0.3783 C.ar    1  UNL1        0.0341
     28 S           4.1737   -0.2863    2.1355 S.2     1  UNL1       -0.0955
     29 H           6.3816   -0.4678    3.1748 H       1  UNL1        0.0694
     30 H           7.5951   -1.1179    0.9359 H       1  UNL1        0.0629
     31 H           6.6388   -1.5142   -1.9662 H       1  UNL1        0.0700
     32 H           2.0367    1.3400   -1.6897 H       1  UNL1        0.0631
     33 H           0.2557    2.6692   -2.3107 H       1  UNL1        0.0624
     34 H          -2.0574    3.2937   -2.3613 H       1  UNL1        0.0624
     35 H          -4.3000    3.0734   -1.8234 H       1  UNL1        0.0624
     36 H          -6.2348    2.0698   -0.6235 H       1  UNL1        0.0624
     37 H          -6.7595    0.0252    1.2830 H       1  UNL1        0.0813
     38 H          -5.2772   -1.6227    2.4726 H       1  UNL1        0.1648
     39 H          -2.8904   -1.4838    1.8931 H       1  UNL1        0.0813
@<TRIPOS>BOND
     1     1     2   ar
     2     2     3   ar
     3     3     4   ar
     4     4     5   ar
     5     5     6   ar
     6     6     7    1
     7     7     8   ar
     8     8     9   ar
     9     9    10   ar
    10    10    11   ar
    11    11    12   ar
    12    12    13   ar
    13    13    14   ar
    14    14    15   ar
    15    15    16   ar
    16    16    17   ar
    17    17    18   ar
    18    18    19   ar
    19    19    20   ar
    20    20    21   ar
    21    21    22   ar
    22    22    23   ar
    23    23    24   ar
    24    24    25   ar
    25    25    26   ar
    26     6    27   ar
    27    27    28   ar
    28    28     1   ar
    29    27     3   ar
    30    26     7   ar
    31    21     9   ar
    32    26    22   ar
    33    20    12   ar
    34    19    15   ar
    35     1    29    1
    36     2    30    1
    37     4    31    1
    38     8    32    1
    39    10    33    1
    40    11    34    1
    41    13    35    1
    42    14    36    1
    43    16    37    1
    44    17    38    1
    45    18    39    1
