@<TRIPOS>MOLECULE
*****
 40 45 0 0 0
SMALL
GASTEIGER

@<TRIPOS>ATOM
      1 SI          1.2853    3.8140    1.0763 Si      1  UNL1        0.0000
      2 C          -0.2027    2.7723    0.6750 C.2     1  UNL1        0.0000
      3 C           0.1387    1.5078    0.3449 C.ar    1  UNL1        0.0000
      4 C          -0.8269    0.4042    0.1471 C.ar    1  UNL1        0.0000
      5 C          -2.2216    0.6154    0.1064 C.ar    1  UNL1        0.0000
      6 C          -3.1449   -0.4405   -0.0230 C.ar    1  UNL1        0.0000
      7 C          -2.6144   -1.7347   -0.1120 C.ar    1  UNL1        0.0000
      8 C          -1.2331   -1.9604   -0.0867 C.ar    1  UNL1        0.0000
      9 C          -0.3099   -0.9043    0.0349 C.ar    1  UNL1        0.0000
     10 C           1.1582   -1.1584   -0.0088 C.ar    1  UNL1        0.0000
     11 N           1.5037   -2.4681   -0.1367 N.ar    1  UNL1        0.0000
     12 C           2.8045   -2.7666   -0.3086 C.ar    1  UNL1        0.0000
     13 C           3.8146   -1.8234   -0.4281 C.ar    1  UNL1        0.0000
     14 C           5.1365   -2.2175   -0.6824 C.ar    1  UNL1        0.0000
     15 C           6.0960   -1.2417   -0.8591 C.ar    1  UNL1        0.0000
     16 N           5.8226    0.0719   -0.8203 N.ar    1  UNL1        0.0000
     17 C           4.5344    0.4212   -0.5650 C.ar    1  UNL1        0.0000
     18 C           3.4680   -0.4624   -0.3103 C.ar    1  UNL1        0.0000
     19 C           2.1130   -0.1166   -0.0007 C.ar    1  UNL1        0.0000
     20 C           1.6012    1.2440    0.3276 C.ar    1  UNL1        0.0000
     21 C           2.3308    2.2939    0.7661 C.2     1  UNL1        0.0000
     22 C          -4.6031   -0.1962   -0.0595 C.ar    1  UNL1        0.0000
     23 N          -5.4109   -1.2552   -0.1891 N.ar    1  UNL1        0.0000
     24 C          -6.7097   -0.9677   -0.2155 C.ar    1  UNL1        0.0000
     25 N          -7.2462    0.2455   -0.1262 N.ar    1  UNL1        0.0000
     26 C          -6.3496    1.2190   -0.0007 C.ar    1  UNL1        0.0000
     27 N          -5.0279    1.0692    0.0395 N.ar    1  UNL1        0.0000
     28 H           1.5292    4.8761    0.0718 H       1  UNL1        0.0000
     29 H           1.3199    4.2405    2.4952 H       1  UNL1        0.0000
     30 H          -1.1888    3.1882    0.7996 H       1  UNL1        0.0000
     31 H          -2.6110    1.6284    0.1786 H       1  UNL1        0.0000
     32 H          -3.2758   -2.5942   -0.2119 H       1  UNL1        0.0000
     33 H          -0.8790   -2.9868   -0.1763 H       1  UNL1        0.0000
     34 H           3.0099   -3.8316   -0.3858 H       1  UNL1        0.0000
     35 H           5.4150   -3.2637   -0.7572 H       1  UNL1        0.0000
     36 H           7.1321   -1.4984   -1.0593 H       1  UNL1        0.0000
     37 H           4.3843    1.4930   -0.6243 H       1  UNL1        0.0000
     38 H           3.3837    2.3547    0.9776 H       1  UNL1        0.0000
     39 H          -7.3950   -1.8021   -0.3197 H       1  UNL1        0.0000
     40 H          -6.7313    2.2315    0.0762 H       1  UNL1        0.0000
@<TRIPOS>BOND
     1     1     2    1
     2     2     3    2
     3     3     4   ar
     4     4     5   ar
     5     5     6   ar
     6     6     7   ar
     7     7     8   ar
     8     8     9   ar
     9     9    10   ar
    10    10    11   ar
    11    11    12   ar
    12    12    13   ar
    13    13    14   ar
    14    14    15   ar
    15    15    16   ar
    16    16    17   ar
    17    17    18   ar
    18    18    19   ar
    19    19    20   ar
    20    20    21    2
    21     6    22    1
    22    22    23   ar
    23    23    24   ar
    24    24    25   ar
    25    25    26   ar
    26    26    27   ar
    27    21     1    1
    28    27    22   ar
    29    20     3   ar
    30     9     4   ar
    31    19    10   ar
    32    18    13   ar
    33     1    28    1
    34     1    29    1
    35     2    30    1
    36     5    31    1
    37     7    32    1
    38     8    33    1
    39    12    34    1
    40    14    35    1
    41    15    36    1
    42    17    37    1
    43    21    38    1
    44    24    39    1
    45    26    40    1
