@<TRIPOS>MOLECULE
*****
 34 39 0 0 0
SMALL
GASTEIGER

@<TRIPOS>ATOM
      1 C          -4.5164    1.3621    1.8877 C.ar    1  UNL1        0.0932
      2 C          -5.4488    0.4403    1.3929 C.ar    1  UNL1       -0.0156
      3 C          -4.7046   -0.4199    0.5708 C.ar    1  UNL1        0.0278
      4 C          -4.8644   -1.5046   -0.2168 C.ar    1  UNL1       -0.0129
      5 S          -3.3016   -1.9159   -0.8714 S.2     1  UNL1       -0.0923
      6 C          -2.5023   -0.6038   -0.0716 C.ar    1  UNL1        0.0627
      7 C          -1.0868   -0.3485   -0.1889 C.ar    1  UNL1        0.0011
      8 C          -0.1021   -1.2668    0.2339 C.ar    1  UNL1       -0.0450
      9 C           1.3097   -1.0549    0.1394 C.ar    1  UNL1       -0.0156
     10 C           2.1476   -2.0592    0.6077 C.ar    1  UNL1       -0.0534
     11 C           3.5344   -1.9300    0.5526 C.ar    1  UNL1       -0.0529
     12 C           4.1369   -0.7705    0.0179 C.ar    1  UNL1       -0.0102
     13 C           5.5359   -0.4699   -0.1159 C.ar    1  UNL1       -0.0470
     14 C           5.7653    0.7560   -0.6822 C.ar    1  UNL1       -0.0232
     15 S           4.3159    1.5514   -1.0556 S.2     1  UNL1       -0.0960
     16 C           3.3134    0.2640   -0.4645 C.ar    1  UNL1        0.0276
     17 C           1.8947    0.1411   -0.4131 C.ar    1  UNL1        0.0046
     18 C           0.9053    1.0643   -0.8481 C.ar    1  UNL1       -0.0015
     19 C           1.1314    2.2923   -1.4293 C.ar    1  UNL1       -0.0160
     20 S          -0.3141    3.1226   -1.8400 S.2     1  UNL1       -0.1038
     21 C          -1.2869    1.8498   -1.2462 C.ar    1  UNL1       -0.0160
     22 C          -0.5309    0.8186   -0.7346 C.ar    1  UNL1       -0.0019
     23 C          -3.4218    0.0660    0.6516 C.ar    1  UNL1        0.1495
     24 O          -3.2231    1.1571    1.4425 O.2     1  UNL1       -0.4618
     25 H          -4.6184    2.2071    2.5563 H       1  UNL1        0.1030
     26 H          -6.5055    0.4226    1.6171 H       1  UNL1        0.0655
     27 H          -5.7455   -2.0822   -0.4567 H       1  UNL1        0.0701
     28 H          -0.4537   -2.2033    0.6732 H       1  UNL1        0.0630
     29 H           1.7369   -2.9747    1.0309 H       1  UNL1        0.0624
     30 H           4.1590   -2.7373    0.9292 H       1  UNL1        0.0624
     31 H           6.3320   -1.1352    0.1953 H       1  UNL1        0.0629
     32 H           6.7187    1.2205   -0.8932 H       1  UNL1        0.0694
     33 H           2.0520    2.7978   -1.6639 H       1  UNL1        0.0700
     34 H          -2.3622    1.9429   -1.3071 H       1  UNL1        0.0700
@<TRIPOS>BOND
     1     1     2   ar
     2     2     3   ar
     3     3     4   ar
     4     4     5   ar
     5     5     6   ar
     6     6     7    1
     7     7     8   ar
     8     8     9   ar
     9     9    10   ar
    10    10    11   ar
    11    11    12   ar
    12    12    13   ar
    13    13    14   ar
    14    14    15   ar
    15    15    16   ar
    16    16    17   ar
    17    17    18   ar
    18    18    19   ar
    19    19    20   ar
    20    20    21   ar
    21    21    22   ar
    22     6    23   ar
    23    23    24   ar
    24    24     1   ar
    25    23     3   ar
    26    22     7   ar
    27    17     9   ar
    28    22    18   ar
    29    16    12   ar
    30     1    25    1
    31     2    26    1
    32     4    27    1
    33     8    28    1
    34    10    29    1
    35    11    30    1
    36    13    31    1
    37    14    32    1
    38    19    33    1
    39    21    34    1
