@<TRIPOS>MOLECULE
*****
 38 44 0 0 0
SMALL
GASTEIGER

@<TRIPOS>ATOM
      1 C          -5.0380    0.2514   -2.0170 C.ar    1  UNL1        0.0028
      2 C          -5.9643    0.4253   -0.9654 C.ar    1  UNL1       -0.0361
      3 C          -5.2209    0.4681    0.2395 C.ar    1  UNL1        0.0073
      4 C          -5.3791    0.6077    1.5715 C.ar    1  UNL1       -0.0145
      5 S          -3.7973    0.5464    2.2972 S.2     1  UNL1       -0.0939
      6 C          -2.9927    0.3163    0.7807 C.ar    1  UNL1        0.0438
      7 C          -1.5621    0.1823    0.6656 C.ar    1  UNL1        0.0005
      8 C          -0.6370    1.1901    1.0247 C.ar    1  UNL1       -0.0436
      9 C           0.7941    1.0721    0.8925 C.ar    1  UNL1        0.0026
     10 C           1.6249    2.1218    1.2685 C.ar    1  UNL1        0.0362
     11 N           2.9715    2.1447    1.1944 N.ar    1  UNL1       -0.2501
     12 C           3.5364    1.0168    0.7035 C.ar    1  UNL1        0.1213
     13 C           4.9246    0.8461    0.5498 C.ar    1  UNL1        0.1676
     14 O           6.0138    1.6322    0.8018 O.2     1  UNL1       -0.4602
     15 C           7.0849    0.8806    0.4331 C.ar    1  UNL1        0.0938
     16 C           6.7271   -0.3549   -0.0457 C.ar    1  UNL1       -0.0094
     17 C           5.3125   -0.3467    0.0429 C.ar    1  UNL1        0.0600
     18 S           3.9474   -1.3546   -0.2835 S.2     1  UNL1       -0.0827
     19 C           2.8453   -0.1257    0.2828 C.ar    1  UNL1        0.0502
     20 C           1.4404   -0.1003    0.3781 C.ar    1  UNL1        0.0086
     21 C           0.5094   -1.0971    0.0346 C.ar    1  UNL1        0.0089
     22 C           0.7321   -2.3567   -0.4700 C.ar    1  UNL1        0.0100
     23 N          -0.4904   -2.9764   -0.6222 N.ar    1  UNL1       -0.3659
     24 C          -1.5008   -2.1313   -0.2305 C.ar    1  UNL1        0.0100
     25 C          -0.9153   -0.9553    0.1739 C.ar    1  UNL1        0.0083
     26 C          -3.9244    0.3125   -0.1977 C.ar    1  UNL1        0.0614
     27 N          -3.7292    0.1810   -1.5434 N.ar    1  UNL1       -0.3598
     28 H          -5.2129    0.1737   -3.0825 H       1  UNL1        0.0807
     29 H          -7.0362    0.5110   -1.0846 H       1  UNL1        0.0639
     30 H          -6.2701    0.7442    2.1665 H       1  UNL1        0.0700
     31 H          -1.0420    2.1235    1.4223 H       1  UNL1        0.0630
     32 H           1.2025    3.0424    1.6690 H       1  UNL1        0.0836
     33 H           8.0422    1.3657    0.5720 H       1  UNL1        0.1030
     34 H           7.3788   -1.1383   -0.4022 H       1  UNL1        0.0660
     35 H           1.6276   -2.9002   -0.7316 H       1  UNL1        0.0813
     36 H          -0.6219   -3.9215   -0.9604 H       1  UNL1        0.1648
     37 H          -2.5324   -2.4572   -0.2656 H       1  UNL1        0.0813
     38 H          -2.8487    0.0601   -2.0307 H       1  UNL1        0.1654
@<TRIPOS>BOND
     1     1     2   ar
     2     2     3   ar
     3     3     4   ar
     4     4     5   ar
     5     5     6   ar
     6     6     7    1
     7     7     8   ar
     8     8     9   ar
     9     9    10   ar
    10    10    11   ar
    11    11    12   ar
    12    12    13   ar
    13    13    14   ar
    14    14    15   ar
    15    15    16   ar
    16    16    17   ar
    17    17    18   ar
    18    18    19   ar
    19    19    20   ar
    20    20    21   ar
    21    21    22   ar
    22    22    23   ar
    23    23    24   ar
    24    24    25   ar
    25     6    26   ar
    26    26    27   ar
    27    27     1   ar
    28    26     3   ar
    29    25     7   ar
    30    20     9   ar
    31    25    21   ar
    32    19    12   ar
    33    17    13   ar
    34     1    28    1
    35     2    29    1
    36     4    30    1
    37     8    31    1
    38    10    32    1
    39    15    33    1
    40    16    34    1
    41    22    35    1
    42    23    36    1
    43    24    37    1
    44    27    38    1
