@<TRIPOS>MOLECULE
*****
 44 51 0 0 0
SMALL
GASTEIGER

@<TRIPOS>ATOM
      1 C           6.4432    1.1590    2.3512 C.ar    1  UNL1        0.0932
      2 C           7.4847    0.5895    1.6060 C.ar    1  UNL1       -0.0156
      3 C           6.8523   -0.0326    0.5183 C.ar    1  UNL1        0.0278
      4 C           7.1454   -0.7471   -0.5893 C.ar    1  UNL1       -0.0129
      5 S           5.6435   -1.0989   -1.4037 S.2     1  UNL1       -0.0922
      6 C           4.6859   -0.2914   -0.2099 C.ar    1  UNL1        0.0642
      7 C           3.2466   -0.2034   -0.2653 C.ar    1  UNL1        0.0211
      8 C           2.5598    0.4656   -1.2908 C.ar    1  UNL1       -0.0420
      9 C           1.1445    0.5711   -1.3555 C.ar    1  UNL1        0.0036
     10 C           0.5666    1.2596   -2.4105 C.ar    1  UNL1        0.0361
     11 N          -0.7587    1.4364   -2.5931 N.ar    1  UNL1       -0.2543
     12 C          -1.6069    0.9171   -1.6985 C.ar    1  UNL1        0.0722
     13 C          -2.9643    1.1276   -1.9310 C.ar    1  UNL1       -0.0280
     14 C          -3.9740    0.6483   -1.0879 C.ar    1  UNL1       -0.0152
     15 C          -5.3722    0.8975   -1.3792 C.ar    1  UNL1       -0.0533
     16 C          -6.4653    0.4575   -0.5921 C.ar    1  UNL1       -0.0520
     17 C          -6.0122   -0.2523    0.5082 C.ar    1  UNL1        0.0000
     18 C          -6.7969   -0.8208    1.4773 C.ar    1  UNL1        0.0094
     19 N          -5.9443   -1.4248    2.3779 N.ar    1  UNL1       -0.3659
     20 C          -4.6320   -1.2451    1.9898 C.ar    1  UNL1        0.0100
     21 C          -4.6490   -0.5162    0.8256 C.ar    1  UNL1        0.0071
     22 C          -3.5453   -0.0850    0.0516 C.ar    1  UNL1       -0.0080
     23 C          -2.1737   -0.3091    0.3048 C.ar    1  UNL1       -0.0436
     24 C          -1.1761    0.1879   -0.5666 C.ar    1  UNL1        0.0108
     25 C           0.2499    0.0128   -0.3967 C.ar    1  UNL1        0.0209
     26 C           0.9266   -0.6971    0.6777 C.ar    1  UNL1        0.1088
     27 N           0.3471   -1.3285    1.7157 N.ar    1  UNL1       -0.1901
     28 S           1.5455   -1.9802    2.6460 S.2     1  UNL1        0.1165
     29 N           2.8772   -1.5190    1.7882 N.ar    1  UNL1       -0.1901
     30 C           2.4421   -0.8044    0.7348 C.ar    1  UNL1        0.1088
     31 C           5.5164    0.2159    0.7222 C.ar    1  UNL1        0.1495
     32 O           5.1833    0.9512    1.8193 O.2     1  UNL1       -0.4618
     33 H           6.4397    1.7344    3.2679 H       1  UNL1        0.1030
     34 H           8.5372    0.6385    1.8444 H       1  UNL1        0.0655
     35 H           8.0934   -1.0810   -0.9861 H       1  UNL1        0.0701
     36 H           3.1569    0.9377   -2.0747 H       1  UNL1        0.0631
     37 H           1.1749    1.7185   -3.1879 H       1  UNL1        0.0836
     38 H          -3.2379    1.6964   -2.8189 H       1  UNL1        0.0645
     39 H          -5.6127    1.4707   -2.2771 H       1  UNL1        0.0624
     40 H          -7.4977    0.6598   -0.8364 H       1  UNL1        0.0624
     41 H          -7.8682   -0.8586    1.6199 H       1  UNL1        0.0813
     42 H          -6.2381   -1.9278    3.2050 H       1  UNL1        0.1648
     43 H          -3.8253   -1.6543    2.5824 H       1  UNL1        0.0813
     44 H          -1.9116   -0.8754    1.1912 H       1  UNL1        0.0631
@<TRIPOS>BOND
     1     1     2   ar
     2     2     3   ar
     3     3     4   ar
     4     4     5   ar
     5     5     6   ar
     6     6     7    1
     7     7     8   ar
     8     8     9   ar
     9     9    10   ar
    10    10    11   ar
    11    11    12   ar
    12    12    13   ar
    13    13    14   ar
    14    14    15   ar
    15    15    16   ar
    16    16    17   ar
    17    17    18   ar
    18    18    19   ar
    19    19    20   ar
    20    20    21   ar
    21    21    22   ar
    22    22    23   ar
    23    23    24   ar
    24    24    25   ar
    25    25    26   ar
    26    26    27   ar
    27    27    28   ar
    28    28    29   ar
    29    29    30   ar
    30     6    31   ar
    31    31    32   ar
    32    32     1   ar
    33    31     3   ar
    34    30     7   ar
    35    25     9   ar
    36    30    26   ar
    37    24    12   ar
    38    22    14   ar
    39    21    17   ar
    40     1    33    1
    41     2    34    1
    42     4    35    1
    43     8    36    1
    44    10    37    1
    45    13    38    1
    46    15    39    1
    47    16    40    1
    48    18    41    1
    49    19    42    1
    50    20    43    1
    51    23    44    1
