@<TRIPOS>MOLECULE
*****
 33 38 0 0 0
SMALL
GASTEIGER

@<TRIPOS>ATOM
      1 C           4.6291   -1.3373    1.3782 C.ar    1  UNL1       -0.0231
      2 C           5.4550   -0.5043    0.6172 C.ar    1  UNL1       -0.0465
      3 C           4.7179    0.3600   -0.2257 C.ar    1  UNL1       -0.0031
      4 C           5.0913    1.3085   -1.1111 C.ar    1  UNL1       -0.0154
      5 S           3.6647    1.9795   -1.7942 S.2     1  UNL1       -0.0919
      6 C           2.6099    0.9636   -0.8677 C.ar    1  UNL1        0.0687
      7 C           1.1771    1.0214   -0.9705 C.ar    1  UNL1        0.1439
      8 C           0.3950    1.8415   -1.7731 C.ar    1  UNL1       -0.0060
      9 C          -0.9651    1.5277   -1.5215 C.ar    1  UNL1        0.0395
     10 C          -2.1974    1.9781   -1.9892 C.ar    1  UNL1        0.0390
     11 N          -3.3531    1.4390   -1.5176 N.ar    1  UNL1       -0.2541
     12 C          -3.3385    0.4637   -0.5937 C.ar    1  UNL1        0.0751
     13 C          -4.5838   -0.0511   -0.1481 C.ar    1  UNL1       -0.0350
     14 C          -4.7692   -1.0758    0.8157 C.ar    1  UNL1       -0.0515
     15 C          -3.5551   -1.5495    1.3048 C.ar    1  UNL1       -0.0101
     16 C          -3.4758   -2.5431    2.2481 C.ar    1  UNL1       -0.0166
     17 S          -1.8398   -2.8966    2.6376 S.2     1  UNL1       -0.1039
     18 C          -1.2448   -1.7140    1.5380 C.ar    1  UNL1       -0.0159
     19 C          -2.2648   -1.0625    0.8870 C.ar    1  UNL1        0.0018
     20 C          -2.1168   -0.0463   -0.0701 C.ar    1  UNL1        0.0514
     21 C          -0.9529    0.5219   -0.5690 C.ar    1  UNL1        0.1469
     22 O           0.3343    0.2192   -0.2393 O.2     1  UNL1       -0.4535
     23 C           3.3489    0.1356   -0.0591 C.ar    1  UNL1        0.0370
     24 S           2.8997   -1.1464    1.1395 S.2     1  UNL1       -0.0954
     25 H           4.9460   -2.0830    2.0948 H       1  UNL1        0.0694
     26 H           6.5355   -0.5386    0.6859 H       1  UNL1        0.0629
     27 H           6.0763    1.6478   -1.3994 H       1  UNL1        0.0700
     28 H           0.7619    2.5863   -2.4658 H       1  UNL1        0.0662
     29 H          -2.3024    2.7600   -2.7330 H       1  UNL1        0.0837
     30 H          -5.4811    0.3856   -0.5916 H       1  UNL1        0.0639
     31 H          -5.7487   -1.4254    1.1139 H       1  UNL1        0.0624
     32 H          -4.2750   -3.0852    2.7345 H       1  UNL1        0.0699
     33 H          -0.1779   -1.5776    1.4446 H       1  UNL1        0.0700
@<TRIPOS>BOND
     1     1     2   ar
     2     2     3   ar
     3     3     4   ar
     4     4     5   ar
     5     5     6   ar
     6     6     7    1
     7     7     8   ar
     8     8     9   ar
     9     9    10   ar
    10    10    11   ar
    11    11    12   ar
    12    12    13   ar
    13    13    14   ar
    14    14    15   ar
    15    15    16   ar
    16    16    17   ar
    17    17    18   ar
    18    18    19   ar
    19    19    20   ar
    20    20    21   ar
    21    21    22   ar
    22     6    23   ar
    23    23    24   ar
    24    24     1   ar
    25    23     3   ar
    26    22     7   ar
    27    21     9   ar
    28    20    12   ar
    29    19    15   ar
    30     1    25    1
    31     2    26    1
    32     4    27    1
    33     8    28    1
    34    10    29    1
    35    13    30    1
    36    14    31    1
    37    16    32    1
    38    18    33    1
