@<TRIPOS>MOLECULE
*****
 43 50 0 0 0
SMALL
GASTEIGER

@<TRIPOS>ATOM
      1 C           7.0782   -2.0607   -0.4610 C.ar    1  UNL1       -0.0231
      2 C           7.6527   -0.7836   -0.5010 C.ar    1  UNL1       -0.0465
      3 C           6.7012    0.2420   -0.2876 C.ar    1  UNL1       -0.0032
      4 C           6.7825    1.5916   -0.2481 C.ar    1  UNL1       -0.0155
      5 S           5.2004    2.2098    0.0491 S.2     1  UNL1       -0.0949
      6 C           4.5008    0.6393    0.1364 C.ar    1  UNL1        0.0358
      7 C           3.0938    0.4328    0.3945 C.ar    1  UNL1        0.0200
      8 C           2.0866    0.7535   -0.5311 C.ar    1  UNL1       -0.0253
      9 C           0.7165    0.5527   -0.3243 C.ar    1  UNL1        0.0744
     10 N          -0.0716    0.9214   -1.3275 N.ar    1  UNL1       -0.2542
     11 C          -1.4124    0.7507   -1.2060 C.ar    1  UNL1        0.0367
     12 C          -2.0876    0.2103   -0.1088 C.ar    1  UNL1        0.0121
     13 C          -1.2576   -0.1774    0.9592 C.ar    1  UNL1        0.0136
     14 C          -1.9261   -0.7216    2.0631 C.ar    1  UNL1        0.0367
     15 N          -3.2634   -0.9066    2.1852 N.ar    1  UNL1       -0.2543
     16 C          -4.0616   -0.5489    1.1837 C.ar    1  UNL1        0.0723
     17 C          -5.4461   -0.7903    1.4049 C.ar    1  UNL1       -0.0351
     18 C          -6.4984   -0.5078    0.5104 C.ar    1  UNL1       -0.0506
     19 C          -5.9886    0.0545   -0.6410 C.ar    1  UNL1        0.0001
     20 C          -6.7490    0.4417   -1.7129 C.ar    1  UNL1        0.0094
     21 N          -5.8806    0.9487   -2.6470 N.ar    1  UNL1       -0.3659
     22 C          -4.5814    0.8789   -2.1759 C.ar    1  UNL1        0.0101
     23 C          -4.6090    0.3203   -0.9176 C.ar    1  UNL1        0.0092
     24 C          -3.5269    0.0309   -0.0140 C.ar    1  UNL1        0.0187
     25 C           0.1781   -0.0061    0.8649 C.ar    1  UNL1        0.0377
     26 C           1.1755   -0.3442    1.8652 C.ar    1  UNL1        0.1103
     27 N           0.9480   -0.8714    3.0822 N.ar    1  UNL1       -0.1901
     28 S           2.4092   -1.0593    3.8323 S.2     1  UNL1        0.1165
     29 N           3.4204   -0.4800    2.6627 N.ar    1  UNL1       -0.1901
     30 C           2.6524   -0.1180    1.6201 C.ar    1  UNL1        0.1088
     31 C           5.4448   -0.3273   -0.0786 C.ar    1  UNL1        0.0341
     32 S           5.3482   -2.1298   -0.1480 S.2     1  UNL1       -0.0955
     33 H           7.5887   -3.0045   -0.5975 H       1  UNL1        0.0694
     34 H           8.7088   -0.6266   -0.6828 H       1  UNL1        0.0629
     35 H           7.6318    2.2475   -0.3779 H       1  UNL1        0.0700
     36 H           2.3874    1.1851   -1.4888 H       1  UNL1        0.0646
     37 H          -1.9372    1.0897   -2.0880 H       1  UNL1        0.0836
     38 H          -1.3939   -1.0567    2.9489 H       1  UNL1        0.0836
     39 H          -5.7165   -1.2423    2.3617 H       1  UNL1        0.0639
     40 H          -7.5370   -0.7125    0.7226 H       1  UNL1        0.0625
     41 H          -7.8136    0.4088   -1.9030 H       1  UNL1        0.0813
     42 H          -6.1497    1.3193   -3.5497 H       1  UNL1        0.1648
     43 H          -3.7979    1.2462   -2.8184 H       1  UNL1        0.0813
@<TRIPOS>BOND
     1     1     2   ar
     2     2     3   ar
     3     3     4   ar
     4     4     5   ar
     5     5     6   ar
     6     6     7    1
     7     7     8   ar
     8     8     9   ar
     9     9    10   ar
    10    10    11   ar
    11    11    12   ar
    12    12    13   ar
    13    13    14   ar
    14    14    15   ar
    15    15    16   ar
    16    16    17   ar
    17    17    18   ar
    18    18    19   ar
    19    19    20   ar
    20    20    21   ar
    21    21    22   ar
    22    22    23   ar
    23    23    24   ar
    24    13    25   ar
    25    25    26   ar
    26    26    27   ar
    27    27    28   ar
    28    28    29   ar
    29    29    30   ar
    30     6    31   ar
    31    31    32   ar
    32    32     1   ar
    33    31     3   ar
    34    30     7   ar
    35    25     9   ar
    36    30    26   ar
    37    24    12   ar
    38    24    16   ar
    39    23    19   ar
    40     1    33    1
    41     2    34    1
    42     4    35    1
    43     8    36    1
    44    11    37    1
    45    14    38    1
    46    17    39    1
    47    18    40    1
    48    20    41    1
    49    21    42    1
    50    22    43    1
