@<TRIPOS>MOLECULE
*****
 39 45 0 0 0
SMALL
GASTEIGER

@<TRIPOS>ATOM
      1 C           6.0280    1.7315   -0.8155 C.ar    1  UNL1        0.0028
      2 C           6.9667    0.7111   -0.5528 C.ar    1  UNL1       -0.0361
      3 C           6.2438   -0.3964   -0.0483 C.ar    1  UNL1        0.0073
      4 C           6.4314   -1.6505    0.4097 C.ar    1  UNL1       -0.0145
      5 S           4.8729   -2.2858    0.8501 S.2     1  UNL1       -0.0924
      6 C           4.0307   -0.8424    0.3822 C.ar    1  UNL1        0.0614
      7 C           2.5882   -0.7141    0.4664 C.ar    1  UNL1        0.0816
      8 C           1.8199   -0.3511   -0.6289 C.ar    1  UNL1       -0.0091
      9 C           0.4495   -0.2282   -0.4914 C.ar    1  UNL1        0.0765
     10 N          -0.2720    0.1310   -1.5546 N.ar    1  UNL1       -0.2541
     11 C          -1.6127    0.2411   -1.4012 C.ar    1  UNL1        0.0381
     12 C          -2.3160    0.0131   -0.2098 C.ar    1  UNL1        0.0290
     13 C          -1.5352   -0.3592    0.8975 C.ar    1  UNL1        0.0837
     14 N          -2.0990   -0.6027    2.0982 N.ar    1  UNL1       -0.2536
     15 C          -3.4382   -0.4917    2.2459 C.ar    1  UNL1        0.0361
     16 C          -4.3226   -0.1355    1.2419 C.ar    1  UNL1        0.0031
     17 C          -5.7155   -0.0531    1.5249 C.ar    1  UNL1       -0.0504
     18 C          -6.6843    0.2991    0.5763 C.ar    1  UNL1       -0.0329
     19 C          -6.1983    0.5780   -0.7158 C.ar    1  UNL1        0.1005
     20 N          -6.9596    0.9327   -1.7612 N.ar    1  UNL1       -0.1908
     21 S          -5.9328    1.1477   -3.0421 S.2     1  UNL1        0.1165
     22 N          -4.4795    0.8027   -2.3268 N.ar    1  UNL1       -0.1901
     23 C          -4.7226    0.4969   -1.0396 C.ar    1  UNL1        0.1083
     24 C          -3.7460    0.1279   -0.0325 C.ar    1  UNL1        0.0224
     25 C          -0.1432   -0.4789    0.7503 C.ar    1  UNL1        0.0444
     26 C           0.7119   -0.8426    1.7931 C.ar    1  UNL1        0.0395
     27 N           2.0543   -0.9608    1.6794 N.ar    1  UNL1       -0.2536
     28 C           4.9416    0.0540   -0.0611 C.ar    1  UNL1        0.0629
     29 N           4.7302    1.3316   -0.5001 N.ar    1  UNL1       -0.3597
     30 H           6.1875    2.7304   -1.2013 H       1  UNL1        0.0807
     31 H           8.0345    0.7884   -0.7093 H       1  UNL1        0.0639
     32 H           7.3338   -2.2321    0.5279 H       1  UNL1        0.0700
     33 H           2.2772   -0.1762   -1.5973 H       1  UNL1        0.0661
     34 H          -2.1134    0.5330   -2.3193 H       1  UNL1        0.0836
     35 H          -3.7848   -0.7122    3.2542 H       1  UNL1        0.0836
     36 H          -6.0671   -0.2742    2.5353 H       1  UNL1        0.0625
     37 H          -7.7397    0.3552    0.8147 H       1  UNL1        0.0640
     38 H           0.3258   -1.0558    2.7881 H       1  UNL1        0.0837
     39 H           3.8549    1.8380   -0.5559 H       1  UNL1        0.1654
@<TRIPOS>BOND
     1     1     2   ar
     2     2     3   ar
     3     3     4   ar
     4     4     5   ar
     5     5     6   ar
     6     6     7    1
     7     7     8   ar
     8     8     9   ar
     9     9    10   ar
    10    10    11   ar
    11    11    12   ar
    12    12    13   ar
    13    13    14   ar
    14    14    15   ar
    15    15    16   ar
    16    16    17   ar
    17    17    18   ar
    18    18    19   ar
    19    19    20   ar
    20    20    21   ar
    21    21    22   ar
    22    22    23   ar
    23    23    24   ar
    24    13    25   ar
    25    25    26   ar
    26    26    27   ar
    27     6    28   ar
    28    28    29   ar
    29    29     1   ar
    30    28     3   ar
    31    27     7   ar
    32    25     9   ar
    33    24    12   ar
    34    24    16   ar
    35    23    19   ar
    36     1    30    1
    37     2    31    1
    38     4    32    1
    39     8    33    1
    40    11    34    1
    41    15    35    1
    42    17    36    1
    43    18    37    1
    44    26    38    1
    45    29    39    1
