@<TRIPOS>MOLECULE
*****
 48 55 0 0 0
SMALL
GASTEIGER

@<TRIPOS>ATOM
      1 C           6.1284    1.9463    0.5105 C.ar    1  UNL1        0.0028
      2 C           7.0178    1.2609   -0.3458 C.ar    1  UNL1       -0.0361
      3 C           6.2438    0.3477   -1.1029 C.ar    1  UNL1        0.0073
      4 C           6.3619   -0.5872   -2.0675 C.ar    1  UNL1       -0.0145
      5 S           4.7692   -1.2120   -2.3904 S.2     1  UNL1       -0.0939
      6 C           4.0140   -0.2019   -1.2024 C.ar    1  UNL1        0.0439
      7 C           2.5977   -0.2248   -0.9357 C.ar    1  UNL1        0.0019
      8 C           1.5895    0.0025   -1.8957 C.ar    1  UNL1       -0.0268
      9 C           0.1894   -0.0223   -1.6573 C.ar    1  UNL1        0.0728
     10 N          -0.5596    0.1052   -2.7502 N.ar    1  UNL1       -0.2542
     11 C          -1.8976    0.0004   -2.6250 C.ar    1  UNL1        0.0380
     12 C          -2.5841   -0.0995   -1.4122 C.ar    1  UNL1        0.0253
     13 C          -3.9961   -0.2228   -1.4143 C.ar    1  UNL1        0.0563
     14 N          -4.8949   -0.3591   -2.4552 N.ar    1  UNL1       -0.3601
     15 C          -6.1689   -0.4874   -1.9775 C.ar    1  UNL1        0.0028
     16 C          -6.1065   -0.4082   -0.6078 C.ar    1  UNL1       -0.0361
     17 C          -4.7375   -0.2367   -0.2343 C.ar    1  UNL1        0.0080
     18 C          -4.0541   -0.0308    0.9924 C.ar    1  UNL1       -0.0081
     19 C          -4.8187    0.0827    2.1763 C.ar    1  UNL1       -0.0534
     20 C          -4.2129    0.4113    3.3834 C.ar    1  UNL1       -0.0611
     21 C          -2.8507    0.6610    3.4119 C.ar    1  UNL1       -0.0611
     22 C          -2.0899    0.5293    2.2437 C.ar    1  UNL1       -0.0534
     23 C          -2.6369    0.1115    1.0078 C.ar    1  UNL1       -0.0088
     24 C          -1.8630   -0.0720   -0.2026 C.ar    1  UNL1        0.0031
     25 C          -0.4111   -0.2000   -0.3580 C.ar    1  UNL1        0.0179
     26 C           0.6232   -0.5625    0.5678 C.ar    1  UNL1        0.0098
     27 C           0.4798   -1.1603    1.7999 C.ar    1  UNL1        0.0101
     28 N           1.7351   -1.3820    2.3211 N.ar    1  UNL1       -0.3659
     29 C           2.6913   -1.0254    1.4016 C.ar    1  UNL1        0.0100
     30 C           2.0301   -0.5607    0.2893 C.ar    1  UNL1        0.0084
     31 C           4.9687    0.5649   -0.6308 C.ar    1  UNL1        0.0614
     32 N           4.8140    1.5162    0.3376 N.ar    1  UNL1       -0.3598
     33 H           6.3328    2.7217    1.2376 H       1  UNL1        0.0807
     34 H           8.0859    1.4244   -0.3978 H       1  UNL1        0.0639
     35 H           7.2291   -0.9441   -2.6032 H       1  UNL1        0.0700
     36 H           1.9041    0.1964   -2.9236 H       1  UNL1        0.0645
     37 H          -2.4171    0.0267   -3.5780 H       1  UNL1        0.0836
     38 H          -4.6469   -0.3887   -3.4342 H       1  UNL1        0.1654
     39 H          -7.0070   -0.6147   -2.6495 H       1  UNL1        0.0807
     40 H          -6.9589   -0.4569    0.0566 H       1  UNL1        0.0639
     41 H          -5.8967   -0.0550    2.1606 H       1  UNL1        0.0624
     42 H          -4.8094    0.5117    4.2857 H       1  UNL1        0.0618
     43 H          -2.3727    0.9754    4.3360 H       1  UNL1        0.0618
     44 H          -1.0432    0.8149    2.3073 H       1  UNL1        0.0624
     45 H          -0.3879   -1.4859    2.3569 H       1  UNL1        0.0813
     46 H           1.9228   -1.8161    3.2162 H       1  UNL1        0.1648
     47 H           3.7401   -1.1972    1.6070 H       1  UNL1        0.0813
     48 H           3.9531    1.8033    0.7887 H       1  UNL1        0.1654
@<TRIPOS>BOND
     1     1     2   ar
     2     2     3   ar
     3     3     4   ar
     4     4     5   ar
     5     5     6   ar
     6     6     7    1
     7     7     8   ar
     8     8     9   ar
     9     9    10   ar
    10    10    11   ar
    11    11    12   ar
    12    12    13   ar
    13    13    14   ar
    14    14    15   ar
    15    15    16   ar
    16    16    17   ar
    17    17    18   ar
    18    18    19   ar
    19    19    20   ar
    20    20    21   ar
    21    21    22   ar
    22    22    23   ar
    23    23    24   ar
    24    24    25   ar
    25    25    26   ar
    26    26    27   ar
    27    27    28   ar
    28    28    29   ar
    29    29    30   ar
    30     6    31   ar
    31    31    32   ar
    32    32     1   ar
    33    31     3   ar
    34    30     7   ar
    35    25     9   ar
    36    30    26   ar
    37    24    12   ar
    38    17    13   ar
    39    23    18   ar
    40     1    33    1
    41     2    34    1
    42     4    35    1
    43     8    36    1
    44    11    37    1
    45    14    38    1
    46    15    39    1
    47    16    40    1
    48    19    41    1
    49    20    42    1
    50    21    43    1
    51    22    44    1
    52    27    45    1
    53    28    46    1
    54    29    47    1
    55    32    48    1
