@<TRIPOS>MOLECULE
*****
 35 40 0 0 0
SMALL
GASTEIGER

@<TRIPOS>ATOM
      1 C          -5.4053    1.9508    0.0306 C.ar    1  UNL1        0.0028
      2 C          -6.3645    0.9190   -0.0090 C.ar    1  UNL1       -0.0361
      3 C          -5.6530   -0.3024   -0.0588 C.ar    1  UNL1        0.0073
      4 C          -5.8765   -1.6286   -0.1113 C.ar    1  UNL1       -0.0145
      5 S          -4.3324   -2.4120   -0.1451 S.2     1  UNL1       -0.0934
      6 C          -3.4257   -0.9144   -0.0868 C.ar    1  UNL1        0.0498
      7 C          -1.9788   -0.8802   -0.0878 C.ar    1  UNL1        0.0305
      8 C          -1.1212   -1.9647   -0.1325 C.ar    1  UNL1       -0.0203
      9 C           0.2590   -1.6096   -0.1206 C.ar    1  UNL1        0.0792
     10 N           1.2788   -2.5092   -0.1581 N.ar    1  UNL1       -0.2537
     11 C           2.5207   -1.9890   -0.1394 C.ar    1  UNL1        0.0380
     12 C           2.8260   -0.6286   -0.0856 C.ar    1  UNL1        0.0252
     13 C           4.1548   -0.1275   -0.0678 C.ar    1  UNL1        0.0558
     14 N           5.3738   -0.7743   -0.0956 N.ar    1  UNL1       -0.3601
     15 C           6.3981    0.1337   -0.0610 C.ar    1  UNL1        0.0027
     16 C           5.8442    1.3908   -0.0100 C.ar    1  UNL1       -0.0366
     17 C           4.4300    1.2419   -0.0136 C.ar    1  UNL1        0.0003
     18 C           3.3591    2.1560    0.0245 C.ar    1  UNL1       -0.0520
     19 C           2.0401    1.6857    0.0079 C.ar    1  UNL1       -0.0522
     20 C           1.7699    0.3049   -0.0467 C.ar    1  UNL1        0.0013
     21 C           0.4497   -0.2292   -0.0658 C.ar    1  UNL1        0.0459
     22 S          -1.0721    0.5749   -0.0313 S.2     1  UNL1       -0.0855
     23 C          -4.3327    0.0962   -0.0451 C.ar    1  UNL1        0.0619
     24 N          -4.1083    1.4452    0.0083 N.ar    1  UNL1       -0.3597
     25 H          -5.5482    3.0230    0.0736 H       1  UNL1        0.0807
     26 H          -7.4370    1.0613   -0.0015 H       1  UNL1        0.0639
     27 H          -6.8007   -2.1875   -0.1321 H       1  UNL1        0.0700
     28 H          -1.4487   -2.9957   -0.1731 H       1  UNL1        0.0651
     29 H           3.3048   -2.7401   -0.1706 H       1  UNL1        0.0836
     30 H           5.4963   -1.7764   -0.1357 H       1  UNL1        0.1654
     31 H           7.4297   -0.1921   -0.0757 H       1  UNL1        0.0807
     32 H           6.3950    2.3217    0.0262 H       1  UNL1        0.0638
     33 H           3.5541    3.2242    0.0668 H       1  UNL1        0.0624
     34 H           1.2336    2.4139    0.0383 H       1  UNL1        0.0624
     35 H          -3.2126    1.9185    0.0257 H       1  UNL1        0.1654
@<TRIPOS>BOND
     1     1     2   ar
     2     2     3   ar
     3     3     4   ar
     4     4     5   ar
     5     5     6   ar
     6     6     7    1
     7     7     8   ar
     8     8     9   ar
     9     9    10   ar
    10    10    11   ar
    11    11    12   ar
    12    12    13   ar
    13    13    14   ar
    14    14    15   ar
    15    15    16   ar
    16    16    17   ar
    17    17    18   ar
    18    18    19   ar
    19    19    20   ar
    20    20    21   ar
    21    21    22   ar
    22     6    23   ar
    23    23    24   ar
    24    24     1   ar
    25    23     3   ar
    26    22     7   ar
    27    21     9   ar
    28    20    12   ar
    29    17    13   ar
    30     1    25    1
    31     2    26    1
    32     4    27    1
    33     8    28    1
    34    11    29    1
    35    14    30    1
    36    15    31    1
    37    16    32    1
    38    18    33    1
    39    19    34    1
    40    24    35    1
