@<TRIPOS>MOLECULE
*****
 38 44 0 0 0
SMALL
GASTEIGER

@<TRIPOS>ATOM
      1 C          -5.2201    0.6377    2.0598 C.ar    1  UNL1        0.0028
      2 C          -6.1486    0.2089    1.0863 C.ar    1  UNL1       -0.0361
      3 C          -5.4015   -0.2375   -0.0309 C.ar    1  UNL1        0.0073
      4 C          -5.5603   -0.7515   -1.2676 C.ar    1  UNL1       -0.0145
      5 S          -3.9738   -0.9873   -1.9459 S.2     1  UNL1       -0.0939
      6 C          -3.1664   -0.4000   -0.5320 C.ar    1  UNL1        0.0438
      7 C          -1.7302   -0.3277   -0.4247 C.ar    1  UNL1        0.0009
      8 C          -0.9375    0.5834   -1.1703 C.ar    1  UNL1       -0.0267
      9 C           0.4690    0.7115   -1.0897 C.ar    1  UNL1        0.0757
     10 N           1.0566    1.6360   -1.8672 N.ar    1  UNL1       -0.2540
     11 C           2.4030    1.8199   -1.8474 C.ar    1  UNL1        0.0410
     12 C           3.1998    1.0497   -1.0108 C.ar    1  UNL1        0.0628
     13 C           4.5696    0.9267   -0.6982 C.ar    1  UNL1        0.0944
     14 N           5.8165    1.4191   -0.9812 N.ar    1  UNL1       -0.3576
     15 C           6.7243    0.7291   -0.2018 C.ar    1  UNL1        0.0058
     16 C           6.0680   -0.2057    0.5816 C.ar    1  UNL1       -0.0013
     17 C           4.7192   -0.0395    0.2308 C.ar    1  UNL1        0.1538
     18 O           3.5217   -0.5812    0.5673 O.2     1  UNL1       -0.4525
     19 C           2.6015    0.0906   -0.1982 C.ar    1  UNL1        0.1489
     20 C           1.2249   -0.1134   -0.2072 C.ar    1  UNL1        0.0515
     21 C           0.4713   -1.0338    0.5434 C.ar    1  UNL1        0.0024
     22 C           0.9808   -1.9328    1.4510 C.ar    1  UNL1       -0.0158
     23 S          -0.2525   -2.8983    2.1567 S.2     1  UNL1       -0.1038
     24 C          -1.4821   -2.1224    1.2449 C.ar    1  UNL1       -0.0160
     25 C          -0.9683   -1.1364    0.4340 C.ar    1  UNL1       -0.0018
     26 C          -4.1004   -0.0394    0.3747 C.ar    1  UNL1        0.0614
     27 N          -3.9060    0.4892    1.6194 N.ar    1  UNL1       -0.3598
     28 H          -5.3971    1.0458    3.0469 H       1  UNL1        0.0807
     29 H          -7.2247    0.2302    1.1969 H       1  UNL1        0.0639
     30 H          -6.4548   -0.9985   -1.8204 H       1  UNL1        0.0700
     31 H          -1.4496    1.2521   -1.8658 H       1  UNL1        0.0645
     32 H           2.7919    2.5853   -2.5091 H       1  UNL1        0.0837
     33 H           6.0041    2.1575   -1.6490 H       1  UNL1        0.1654
     34 H           7.7786    0.9660   -0.2726 H       1  UNL1        0.0808
     35 H           6.5016   -0.8950    1.2913 H       1  UNL1        0.0669
     36 H           2.0061   -2.0973    1.7517 H       1  UNL1        0.0700
     37 H          -2.5085   -2.4445    1.3621 H       1  UNL1        0.0700
     38 H          -3.0259    0.7035    2.0736 H       1  UNL1        0.1654
@<TRIPOS>BOND
     1     1     2   ar
     2     2     3   ar
     3     3     4   ar
     4     4     5   ar
     5     5     6   ar
     6     6     7    1
     7     7     8   ar
     8     8     9   ar
     9     9    10   ar
    10    10    11   ar
    11    11    12   ar
    12    12    13   ar
    13    13    14   ar
    14    14    15   ar
    15    15    16   ar
    16    16    17   ar
    17    17    18   ar
    18    18    19   ar
    19    19    20   ar
    20    20    21   ar
    21    21    22   ar
    22    22    23   ar
    23    23    24   ar
    24    24    25   ar
    25     6    26   ar
    26    26    27   ar
    27    27     1   ar
    28    26     3   ar
    29    25     7   ar
    30    20     9   ar
    31    25    21   ar
    32    19    12   ar
    33    17    13   ar
    34     1    28    1
    35     2    29    1
    36     4    30    1
    37     8    31    1
    38    11    32    1
    39    14    33    1
    40    15    34    1
    41    16    35    1
    42    22    36    1
    43    24    37    1
    44    27    38    1
