@<TRIPOS>MOLECULE
*****
 39 45 0 0 0
SMALL
GASTEIGER

@<TRIPOS>ATOM
      1 C           5.2247   -0.3663    2.7558 C.ar    1  UNL1        0.0932
      2 C           6.3299   -0.1800    1.9197 C.ar    1  UNL1       -0.0156
      3 C           5.7817    0.0383    0.6485 C.ar    1  UNL1        0.0278
      4 C           6.1870    0.2824   -0.6115 C.ar    1  UNL1       -0.0129
      5 S           4.7649    0.4206   -1.5863 S.2     1  UNL1       -0.0923
      6 C           3.6545    0.1464   -0.2737 C.ar    1  UNL1        0.0628
      7 C           2.1918    0.1235   -0.3806 C.ar    1  UNL1        0.0050
      8 C           1.3191   -0.1072    0.7334 C.ar    1  UNL1       -0.0266
      9 C          -0.1036   -0.1493    0.7374 C.ar    1  UNL1        0.0743
     10 N          -0.7163   -0.3823    1.9053 N.ar    1  UNL1       -0.2542
     11 C          -2.0696   -0.4367    1.9868 C.ar    1  UNL1        0.0381
     12 C          -2.8688   -0.2514    0.8547 C.ar    1  UNL1        0.0276
     13 C          -4.2812   -0.2516    0.6329 C.ar    1  UNL1        0.0270
     14 C          -5.4024   -0.4353    1.4526 C.ar    1  UNL1        0.0373
     15 N          -6.6537   -0.3760    0.9331 N.ar    1  UNL1       -0.2625
     16 C          -6.8019   -0.1369   -0.3881 C.ar    1  UNL1        0.0295
     17 C          -5.7601    0.0582   -1.2821 C.ar    1  UNL1       -0.0196
     18 C          -4.4858   -0.0078   -0.7227 C.ar    1  UNL1        0.0504
     19 N          -3.2470    0.1348   -1.3008 N.ar    1  UNL1       -0.3535
     20 C          -2.2435   -0.0073   -0.3716 C.ar    1  UNL1        0.0590
     21 C          -0.8486    0.0489   -0.4560 C.ar    1  UNL1        0.0350
     22 C          -0.0337    0.2774   -1.5672 C.ar    1  UNL1        0.0316
     23 C          -0.4080    0.5058   -2.8658 C.ar    1  UNL1        0.1001
     24 O           0.6962    0.6809   -3.6417 O.2     1  UNL1       -0.4698
     25 C           1.7892    0.5638   -2.8340 C.ar    1  UNL1        0.1000
     26 C           1.4103    0.3138   -1.5366 C.ar    1  UNL1        0.0289
     27 C           4.4205   -0.0355    0.8339 C.ar    1  UNL1        0.1495
     28 O           4.0065   -0.2828    2.1104 O.2     1  UNL1       -0.4618
     29 H           5.1442   -0.5642    3.8169 H       1  UNL1        0.1030
     30 H           7.3673   -0.2052    2.2200 H       1  UNL1        0.0655
     31 H           7.1788    0.3879   -1.0276 H       1  UNL1        0.0701
     32 H           1.7635   -0.2751    1.7151 H       1  UNL1        0.0645
     33 H          -2.4779   -0.6303    2.9728 H       1  UNL1        0.0836
     34 H          -5.3342   -0.6294    2.5169 H       1  UNL1        0.0836
     35 H          -7.8335   -0.1038   -0.7304 H       1  UNL1        0.0830
     36 H          -5.9350    0.2468   -2.3331 H       1  UNL1        0.0653
     37 H          -3.1095    0.3195   -2.2816 H       1  UNL1        0.1659
     38 H          -1.3395    0.5778   -3.4036 H       1  UNL1        0.1036
     39 H           2.7234    0.6878   -3.3590 H       1  UNL1        0.1036
@<TRIPOS>BOND
     1     1     2   ar
     2     2     3   ar
     3     3     4   ar
     4     4     5   ar
     5     5     6   ar
     6     6     7    1
     7     7     8   ar
     8     8     9   ar
     9     9    10   ar
    10    10    11   ar
    11    11    12   ar
    12    12    13   ar
    13    13    14   ar
    14    14    15   ar
    15    15    16   ar
    16    16    17   ar
    17    17    18   ar
    18    18    19   ar
    19    19    20   ar
    20    20    21   ar
    21    21    22   ar
    22    22    23   ar
    23    23    24   ar
    24    24    25   ar
    25    25    26   ar
    26     6    27   ar
    27    27    28   ar
    28    28     1   ar
    29    27     3   ar
    30    26     7   ar
    31    21     9   ar
    32    26    22   ar
    33    20    12   ar
    34    18    13   ar
    35     1    29    1
    36     2    30    1
    37     4    31    1
    38     8    32    1
    39    11    33    1
    40    14    34    1
    41    16    35    1
    42    17    36    1
    43    19    37    1
    44    23    38    1
    45    25    39    1
