@<TRIPOS>MOLECULE
*****
 47 54 0 0 0
SMALL
GASTEIGER

@<TRIPOS>ATOM
      1 SI         -0.4035    3.9499   -2.4122 Si      1  UNL1        0.0000
      2 C           0.7517    2.6321   -1.7760 C.2     1  UNL1        0.0000
      3 C           0.0844    1.6446   -1.1396 C.ar    1  UNL1        0.0000
      4 C           0.7048    0.4691   -0.5071 C.ar    1  UNL1        0.0000
      5 C           2.1014    0.3192   -0.4187 C.ar    1  UNL1        0.0000
      6 C           2.6643   -0.7695    0.2436 C.ar    1  UNL1        0.0000
      7 C           1.7779   -1.6740    0.7992 C.ar    1  UNL1        0.0000
      8 N           0.4294   -1.5647    0.7282 N.ar    1  UNL1        0.0000
      9 C          -0.1231   -0.5173    0.0648 C.ar    1  UNL1        0.0000
     10 C          -1.6362   -0.4363    0.0374 C.ar    1  UNL1        0.0000
     11 C          -2.5084   -1.5016    0.5061 C.ar    1  UNL1        0.0000
     12 C          -2.1141   -2.8129    0.8993 C.ar    1  UNL1        0.0000
     13 C          -3.0074   -3.7898    1.3622 C.ar    1  UNL1        0.0000
     14 C          -4.3585   -3.5105    1.4480 C.ar    1  UNL1        0.0000
     15 C          -4.8143   -2.2602    1.0542 C.ar    1  UNL1        0.0000
     16 C          -3.9141   -1.2752    0.5808 C.ar    1  UNL1        0.0000
     17 C          -4.4667   -0.0403    0.1691 C.ar    1  UNL1        0.0000
     18 C          -5.7798    0.5219    0.1138 C.ar    1  UNL1        0.0000
     19 C          -5.6476    1.7767   -0.4206 C.ar    1  UNL1        0.0000
     20 O          -4.3494    2.0272   -0.7021 O.2     1  UNL1        0.0000
     21 C          -3.6142    0.9277   -0.3466 C.ar    1  UNL1        0.0000
     22 C          -2.2237    0.7747   -0.4613 C.ar    1  UNL1        0.0000
     23 C          -1.3817    1.8177   -1.0948 C.ar    1  UNL1        0.0000
     24 C          -1.8035    2.9466   -1.7065 C.2     1  UNL1        0.0000
     25 C           4.1041   -0.9405    0.3521 C.ar    1  UNL1        0.0000
     26 S           4.9053   -2.3682   -0.1926 S.2     1  UNL1        0.0000
     27 C           6.4630   -1.7829    0.2528 C.ar    1  UNL1        0.0000
     28 C           6.3065   -0.5533    0.7912 C.ar    1  UNL1        0.0000
     29 C           7.2138    0.3890    1.3312 C.ar    1  UNL1        0.0000
     30 C           6.5718    1.5460    1.7873 C.ar    1  UNL1        0.0000
     31 S           4.8231    1.5923    1.6045 S.2     1  UNL1        0.0000
     32 C           5.0078   -0.0481    0.8662 C.ar    1  UNL1        0.0000
     33 H          -0.2138    5.2468   -1.7192 H       1  UNL1        0.0000
     34 H          -0.4257    4.0093   -3.8936 H       1  UNL1        0.0000
     35 H           1.8115    2.7336   -1.9384 H       1  UNL1        0.0000
     36 H           2.7616    1.0589   -0.8616 H       1  UNL1        0.0000
     37 H           2.1264   -2.5453    1.3481 H       1  UNL1        0.0000
     38 H          -1.0787   -3.1302    0.8344 H       1  UNL1        0.0000
     39 H          -2.6311   -4.7686    1.6488 H       1  UNL1        0.0000
     40 H          -5.0545   -4.2629    1.8070 H       1  UNL1        0.0000
     41 H          -5.8817   -2.0646    1.1137 H       1  UNL1        0.0000
     42 H          -6.7080    0.0649    0.4240 H       1  UNL1        0.0000
     43 H          -6.3419    2.5714   -0.6546 H       1  UNL1        0.0000
     44 H          -2.8104    3.3030   -1.8392 H       1  UNL1        0.0000
     45 H           7.3568   -2.3697    0.0943 H       1  UNL1        0.0000
     46 H           8.2865    0.2549    1.3990 H       1  UNL1        0.0000
     47 H           7.0399    2.4090    2.2413 H       1  UNL1        0.0000
@<TRIPOS>BOND
     1     1     2    1
     2     2     3    2
     3     3     4   ar
     4     4     5   ar
     5     5     6   ar
     6     6     7   ar
     7     7     8   ar
     8     8     9   ar
     9     9    10   ar
    10    10    11   ar
    11    11    12   ar
    12    12    13   ar
    13    13    14   ar
    14    14    15   ar
    15    15    16   ar
    16    16    17   ar
    17    17    18   ar
    18    18    19   ar
    19    19    20   ar
    20    20    21   ar
    21    21    22   ar
    22    22    23   ar
    23    23    24    2
    24     6    25    1
    25    25    26   ar
    26    26    27   ar
    27    27    28   ar
    28    28    29   ar
    29    29    30   ar
    30    30    31   ar
    31    31    32   ar
    32    24     1    1
    33    32    25   ar
    34    23     3   ar
    35    32    28   ar
    36     9     4   ar
    37    22    10   ar
    38    16    11   ar
    39    21    17   ar
    40     1    33    1
    41     1    34    1
    42     2    35    1
    43     5    36    1
    44     7    37    1
    45    12    38    1
    46    13    39    1
    47    14    40    1
    48    15    41    1
    49    18    42    1
    50    19    43    1
    51    24    44    1
    52    27    45    1
    53    29    46    1
    54    30    47    1
