@<TRIPOS>MOLECULE
*****
 44 51 0 0 0
SMALL
GASTEIGER

@<TRIPOS>ATOM
      1 C           7.0774    0.2679    2.3833 C.ar    1  UNL1       -0.0231
      2 C           7.7124   -0.4177    1.3400 C.ar    1  UNL1       -0.0465
      3 C           6.8082   -0.8095    0.3239 C.ar    1  UNL1       -0.0032
      4 C           6.9575   -1.4649   -0.8490 C.ar    1  UNL1       -0.0155
      5 S           5.4076   -1.5746   -1.5967 S.2     1  UNL1       -0.0949
      6 C           4.6208   -0.7585   -0.3010 C.ar    1  UNL1        0.0358
      7 C           3.1971   -0.5080   -0.2990 C.ar    1  UNL1        0.0200
      8 C           2.5805    0.4191   -1.1545 C.ar    1  UNL1       -0.0253
      9 C           1.2095    0.6963   -1.1813 C.ar    1  UNL1        0.0743
     10 N           0.8392    1.6177   -2.0695 N.ar    1  UNL1       -0.2543
     11 C          -0.4690    1.9452   -2.1593 C.ar    1  UNL1        0.0360
     12 C          -1.4873    1.3941   -1.3931 C.ar    1  UNL1        0.0015
     13 C          -2.8263    1.8112   -1.5735 C.ar    1  UNL1       -0.0448
     14 C          -3.8796    1.2766   -0.8243 C.ar    1  UNL1       -0.0166
     15 C          -5.2433    1.7219   -1.0326 C.ar    1  UNL1       -0.0534
     16 C          -6.3779    1.2431   -0.3325 C.ar    1  UNL1       -0.0520
     17 C          -6.0041    0.2791    0.5903 C.ar    1  UNL1        0.0000
     18 C          -6.8480   -0.3958    1.4340 C.ar    1  UNL1        0.0094
     19 N          -6.0663   -1.2568    2.1764 N.ar    1  UNL1       -0.3659
     20 C          -4.7405   -1.1339    1.8120 C.ar    1  UNL1        0.0100
     21 C          -4.6765   -0.1819    0.8234 C.ar    1  UNL1        0.0071
     22 C          -3.5303    0.2840    0.1357 C.ar    1  UNL1       -0.0081
     23 C          -2.1890   -0.1332    0.3192 C.ar    1  UNL1       -0.0449
     24 C          -1.1310    0.4139   -0.4429 C.ar    1  UNL1       -0.0045
     25 C           0.2652    0.0518   -0.3284 C.ar    1  UNL1        0.0363
     26 C           0.8494   -0.9209    0.5789 C.ar    1  UNL1        0.1102
     27 N           0.2004   -1.6710    1.4895 N.ar    1  UNL1       -0.1901
     28 S           1.3191   -2.6085    2.2621 S.2     1  UNL1        0.1165
     29 N           2.6953   -2.1355    1.4833 N.ar    1  UNL1       -0.1901
     30 C           2.3383   -1.1999    0.5862 C.ar    1  UNL1        0.1088
     31 C           5.5198   -0.3973    0.6651 C.ar    1  UNL1        0.0341
     32 S           5.3390    0.4923    2.2265 S.2     1  UNL1       -0.0955
     33 H           7.5453    0.6725    3.2709 H       1  UNL1        0.0694
     34 H           8.7784   -0.6091    1.3345 H       1  UNL1        0.0629
     35 H           7.8426   -1.8731   -1.3159 H       1  UNL1        0.0700
     36 H           3.2142    0.9756   -1.8489 H       1  UNL1        0.0646
     37 H          -0.6799    2.7046   -2.9092 H       1  UNL1        0.0836
     38 H          -3.0468    2.5720   -2.3221 H       1  UNL1        0.0630
     39 H          -5.4227    2.4886   -1.7893 H       1  UNL1        0.0624
     40 H          -7.3836    1.5943   -0.5118 H       1  UNL1        0.0624
     41 H          -7.9182   -0.3538    1.5833 H       1  UNL1        0.0813
     42 H          -6.4136   -1.8860    2.8884 H       1  UNL1        0.1648
     43 H          -3.9831   -1.7368    2.2944 H       1  UNL1        0.0813
     44 H          -2.0002   -0.8951    1.0688 H       1  UNL1        0.0630
@<TRIPOS>BOND
     1     1     2   ar
     2     2     3   ar
     3     3     4   ar
     4     4     5   ar
     5     5     6   ar
     6     6     7    1
     7     7     8   ar
     8     8     9   ar
     9     9    10   ar
    10    10    11   ar
    11    11    12   ar
    12    12    13   ar
    13    13    14   ar
    14    14    15   ar
    15    15    16   ar
    16    16    17   ar
    17    17    18   ar
    18    18    19   ar
    19    19    20   ar
    20    20    21   ar
    21    21    22   ar
    22    22    23   ar
    23    23    24   ar
    24    24    25   ar
    25    25    26   ar
    26    26    27   ar
    27    27    28   ar
    28    28    29   ar
    29    29    30   ar
    30     6    31   ar
    31    31    32   ar
    32    32     1   ar
    33    31     3   ar
    34    30     7   ar
    35    25     9   ar
    36    30    26   ar
    37    24    12   ar
    38    22    14   ar
    39    21    17   ar
    40     1    33    1
    41     2    34    1
    42     4    35    1
    43     8    36    1
    44    11    37    1
    45    13    38    1
    46    15    39    1
    47    16    40    1
    48    18    41    1
    49    19    42    1
    50    20    43    1
    51    23    44    1
