@<TRIPOS>MOLECULE
*****
 42 48 0 0 0
SMALL
GASTEIGER

@<TRIPOS>ATOM
      1 C          -5.8475    1.4224    1.5484 C.ar    1  UNL1        0.0028
      2 C          -6.7666    0.7966    0.6780 C.ar    1  UNL1       -0.0361
      3 C          -6.0094    0.0531   -0.2598 C.ar    1  UNL1        0.0073
      4 C          -6.1556   -0.7516   -1.3322 C.ar    1  UNL1       -0.0145
      5 S          -4.5625   -1.2131   -1.8638 S.2     1  UNL1       -0.0939
      6 C          -3.7712   -0.3164   -0.6133 C.ar    1  UNL1        0.0438
      7 C          -2.3379   -0.2745   -0.4697 C.ar    1  UNL1        0.0009
      8 C          -1.4944    0.4697   -1.3138 C.ar    1  UNL1       -0.0268
      9 C          -0.0902    0.5580   -1.2065 C.ar    1  UNL1        0.0728
     10 N           0.4680    1.3583   -2.1123 N.ar    1  UNL1       -0.2543
     11 C           1.8071    1.5145   -2.1095 C.ar    1  UNL1        0.0360
     12 C           2.6855    0.8721   -1.2496 C.ar    1  UNL1        0.0014
     13 C           4.0723    1.0918   -1.3672 C.ar    1  UNL1       -0.0447
     14 C           4.9861    0.4220   -0.5468 C.ar    1  UNL1       -0.0144
     15 C           6.3692    0.6226   -0.6480 C.ar    1  UNL1       -0.0359
     16 C           7.2089   -0.0944    0.1887 C.ar    1  UNL1        0.0281
     17 N           6.7736   -0.9844    1.1024 N.ar    1  UNL1       -0.2626
     18 C           5.4345   -1.1621    1.1820 C.ar    1  UNL1        0.0353
     19 C           4.4946   -0.4904    0.3938 C.ar    1  UNL1        0.0008
     20 C           3.1016   -0.6971    0.5055 C.ar    1  UNL1       -0.0442
     21 C           2.1472   -0.0045   -0.2852 C.ar    1  UNL1       -0.0060
     22 C           0.6938   -0.1348   -0.2173 C.ar    1  UNL1        0.0163
     23 C          -0.1797   -0.8542    0.6875 C.ar    1  UNL1       -0.0005
     24 C           0.2079   -1.5029    1.8382 C.ar    1  UNL1       -0.0159
     25 S          -1.0953   -2.2744    2.6502 S.2     1  UNL1       -0.1038
     26 C          -2.2285   -1.6932    1.5119 C.ar    1  UNL1       -0.0160
     27 C          -1.6268   -0.9192    0.5449 C.ar    1  UNL1       -0.0019
     28 C          -4.7129    0.2983    0.1344 C.ar    1  UNL1        0.0614
     29 N          -4.5296    1.1168    1.2125 N.ar    1  UNL1       -0.3598
     30 H          -6.0337    2.0743    2.3925 H       1  UNL1        0.0807
     31 H          -7.8432    0.8866    0.7365 H       1  UNL1        0.0639
     32 H          -7.0440   -1.0966   -1.8407 H       1  UNL1        0.0700
     33 H          -1.9622    1.0362   -2.1229 H       1  UNL1        0.0645
     34 H           2.1679    2.1979   -2.8757 H       1  UNL1        0.0836
     35 H           4.4442    1.7877   -2.1185 H       1  UNL1        0.0630
     36 H           6.7912    1.3193   -1.3645 H       1  UNL1        0.0639
     37 H           8.2869    0.0318    0.1415 H       1  UNL1        0.0830
     38 H           5.1253   -1.8879    1.9301 H       1  UNL1        0.0836
     39 H           2.7838   -1.4539    1.2099 H       1  UNL1        0.0630
     40 H           1.1703   -1.5879    2.3097 H       1  UNL1        0.0700
     41 H          -3.2747   -1.9429    1.6327 H       1  UNL1        0.0700
     42 H          -3.6538    1.4066    1.6317 H       1  UNL1        0.1654
@<TRIPOS>BOND
     1     1     2   ar
     2     2     3   ar
     3     3     4   ar
     4     4     5   ar
     5     5     6   ar
     6     6     7    1
     7     7     8   ar
     8     8     9   ar
     9     9    10   ar
    10    10    11   ar
    11    11    12   ar
    12    12    13   ar
    13    13    14   ar
    14    14    15   ar
    15    15    16   ar
    16    16    17   ar
    17    17    18   ar
    18    18    19   ar
    19    19    20   ar
    20    20    21   ar
    21    21    22   ar
    22    22    23   ar
    23    23    24   ar
    24    24    25   ar
    25    25    26   ar
    26    26    27   ar
    27     6    28   ar
    28    28    29   ar
    29    29     1   ar
    30    28     3   ar
    31    27     7   ar
    32    22     9   ar
    33    27    23   ar
    34    21    12   ar
    35    19    14   ar
    36     1    30    1
    37     2    31    1
    38     4    32    1
    39     8    33    1
    40    11    34    1
    41    13    35    1
    42    15    36    1
    43    16    37    1
    44    18    38    1
    45    20    39    1
    46    24    40    1
    47    26    41    1
    48    29    42    1
