@<TRIPOS>MOLECULE
*****
 43 50 0 0 0
SMALL
GASTEIGER

@<TRIPOS>ATOM
      1 C           6.8170    0.6711    0.4127 C.ar    1  UNL1       -0.0231
      2 C           7.0635    0.2333   -0.8941 C.ar    1  UNL1       -0.0465
      3 C           5.9063   -0.2999   -1.5105 C.ar    1  UNL1       -0.0032
      4 C           5.6633   -0.8267   -2.7317 C.ar    1  UNL1       -0.0155
      5 S           3.9982   -1.2721   -2.7959 S.2     1  UNL1       -0.0949
      6 C           3.7000   -0.7493   -1.1838 C.ar    1  UNL1        0.0343
      7 C           2.3964   -0.8511   -0.5690 C.ar    1  UNL1        0.0015
      8 C           1.3434    0.0428   -0.8769 C.ar    1  UNL1       -0.0098
      9 C           0.1039   -0.1125   -0.2309 C.ar    1  UNL1        0.1390
     10 O          -1.0084    0.6664   -0.4139 O.2     1  UNL1       -0.4525
     11 C          -1.9853    0.1656    0.4098 C.ar    1  UNL1        0.1627
     12 C          -1.5183   -0.9367    1.1306 C.ar    1  UNL1        0.1178
     13 N          -2.2759   -1.6285    2.0205 N.ar    1  UNL1       -0.2505
     14 C          -3.5457   -1.1619    2.1627 C.ar    1  UNL1        0.0362
     15 C          -4.1277   -0.0735    1.5018 C.ar    1  UNL1        0.0044
     16 C          -5.4988    0.3332    1.7358 C.ar    1  UNL1       -0.0518
     17 C          -6.1439    1.4244    1.0988 C.ar    1  UNL1       -0.0520
     18 C          -5.2821    2.0578    0.2135 C.ar    1  UNL1        0.0001
     19 C          -5.5829    3.1453   -0.5641 C.ar    1  UNL1        0.0094
     20 N          -4.4468    3.4457   -1.2871 N.ar    1  UNL1       -0.3659
     21 C          -3.4336    2.5620   -0.9759 C.ar    1  UNL1        0.0101
     22 C          -3.9288    1.6861   -0.0422 C.ar    1  UNL1        0.0107
     23 C          -3.2859    0.6152    0.5789 C.ar    1  UNL1        0.0371
     24 C          -0.2020   -1.0809    0.7017 C.ar    1  UNL1        0.0544
     25 C           0.8238   -2.0055    1.0400 C.ar    1  UNL1        0.0025
     26 C           0.7116   -3.0296    1.9320 C.ar    1  UNL1       -0.0158
     27 S           2.2131   -3.8701    1.9923 S.2     1  UNL1       -0.1038
     28 C           2.9388   -2.8240    0.8205 C.ar    1  UNL1       -0.0160
     29 C           2.0738   -1.8410    0.3838 C.ar    1  UNL1       -0.0018
     30 C           4.8351   -0.2356   -0.6192 C.ar    1  UNL1        0.0341
     31 S           5.1709    0.4780    1.0045 S.2     1  UNL1       -0.0955
     32 H           7.5321    1.1154    1.0918 H       1  UNL1        0.0694
     33 H           8.0399    0.3073   -1.3573 H       1  UNL1        0.0629
     34 H           6.3231   -0.9768   -3.5744 H       1  UNL1        0.0700
     35 H           1.4818    0.8440   -1.5963 H       1  UNL1        0.0661
     36 H          -4.1315   -1.7337    2.8818 H       1  UNL1        0.0836
     37 H          -6.0892   -0.2372    2.4557 H       1  UNL1        0.0624
     38 H          -7.1689    1.7068    1.2918 H       1  UNL1        0.0624
     39 H          -6.4820    3.7352   -0.6789 H       1  UNL1        0.0813
     40 H          -4.3662    4.2050   -1.9509 H       1  UNL1        0.1648
     41 H          -2.4657    2.6488   -1.4513 H       1  UNL1        0.0813
     42 H          -0.1309   -3.3360    2.5377 H       1  UNL1        0.0700
     43 H           3.9648   -3.0069    0.5320 H       1  UNL1        0.0700
@<TRIPOS>BOND
     1     1     2   ar
     2     2     3   ar
     3     3     4   ar
     4     4     5   ar
     5     5     6   ar
     6     6     7    1
     7     7     8   ar
     8     8     9   ar
     9     9    10   ar
    10    10    11   ar
    11    11    12   ar
    12    12    13   ar
    13    13    14   ar
    14    14    15   ar
    15    15    16   ar
    16    16    17   ar
    17    17    18   ar
    18    18    19   ar
    19    19    20   ar
    20    20    21   ar
    21    21    22   ar
    22    22    23   ar
    23    12    24   ar
    24    24    25   ar
    25    25    26   ar
    26    26    27   ar
    27    27    28   ar
    28    28    29   ar
    29     6    30   ar
    30    30    31   ar
    31    31     1   ar
    32    30     3   ar
    33    29     7   ar
    34    24     9   ar
    35    29    25   ar
    36    23    11   ar
    37    23    15   ar
    38    22    18   ar
    39     1    32    1
    40     2    33    1
    41     4    34    1
    42     8    35    1
    43    14    36    1
    44    16    37    1
    45    17    38    1
    46    19    39    1
    47    20    40    1
    48    21    41    1
    49    26    42    1
    50    28    43    1
