@<TRIPOS>MOLECULE
*****
 40 46 0 0 0
SMALL
GASTEIGER

@<TRIPOS>ATOM
      1 C           5.1381   -0.1663    4.6365 C.ar    1  UNL1        0.0932
      2 C           5.7979   -1.3332    4.2312 C.ar    1  UNL1       -0.0156
      3 C           5.0596   -1.8020    3.1344 C.ar    1  UNL1        0.0279
      4 C           5.0581   -2.8172    2.2460 C.ar    1  UNL1       -0.0128
      5 S           3.6985   -2.5832    1.1851 S.2     1  UNL1       -0.0893
      6 C           3.1827   -1.1248    1.9793 C.ar    1  UNL1        0.0973
      7 C           2.0364   -0.3645    1.5769 C.ar    1  UNL1        0.1469
      8 C           1.5376    0.7999    2.1299 C.ar    1  UNL1       -0.0008
      9 C           0.4019    1.1140    1.3474 C.ar    1  UNL1        0.0591
     10 S          -0.8371    2.2951    1.2260 S.2     1  UNL1       -0.0843
     11 C          -1.5449    1.4662   -0.1568 C.ar    1  UNL1        0.0318
     12 C          -0.8311    0.3089   -0.5036 C.ar    1  UNL1        0.0404
     13 C           0.2628    0.1729    0.3957 C.ar    1  UNL1        0.1510
     14 O           1.2574   -0.7539    0.5118 O.2     1  UNL1       -0.4530
     15 C          -1.2742   -0.4824   -1.6073 C.ar    1  UNL1       -0.0055
     16 C          -0.5499   -1.6491   -1.9526 C.ar    1  UNL1       -0.0533
     17 C          -0.9412   -2.4531   -3.0192 C.ar    1  UNL1       -0.0611
     18 C          -2.0597   -2.1080   -3.7586 C.ar    1  UNL1       -0.0611
     19 C          -2.7852   -0.9589   -3.4299 C.ar    1  UNL1       -0.0534
     20 C          -2.4242   -0.1090   -2.3514 C.ar    1  UNL1       -0.0094
     21 C          -3.1450    1.0716   -1.9907 C.ar    1  UNL1       -0.0091
     22 C          -4.3041    1.5260   -2.6724 C.ar    1  UNL1       -0.0534
     23 C          -4.9925    2.6851   -2.3005 C.ar    1  UNL1       -0.0611
     24 C          -4.5478    3.4390   -1.2278 C.ar    1  UNL1       -0.0611
     25 C          -3.4152    3.0334   -0.5282 C.ar    1  UNL1       -0.0529
     26 C          -2.7073    1.8604   -0.8942 C.ar    1  UNL1       -0.0029
     27 C           4.0448   -0.8856    2.9906 C.ar    1  UNL1        0.1525
     28 O           4.0260    0.1502    3.8780 O.2     1  UNL1       -0.4617
     29 H           5.3368    0.5365    5.4355 H       1  UNL1        0.1030
     30 H           6.6826   -1.7546    4.6864 H       1  UNL1        0.0655
     31 H           5.7254   -3.6594    2.1312 H       1  UNL1        0.0701
     32 H           1.9295    1.3485    2.9739 H       1  UNL1        0.0667
     33 H           0.3330   -1.9495   -1.3934 H       1  UNL1        0.0624
     34 H          -0.3712   -3.3442   -3.2673 H       1  UNL1        0.0618
     35 H          -2.3744   -2.7285   -4.5936 H       1  UNL1        0.0618
     36 H          -3.6522   -0.7417   -4.0470 H       1  UNL1        0.0624
     37 H          -4.7033    0.9791   -3.5219 H       1  UNL1        0.0624
     38 H          -5.8760    2.9923   -2.8543 H       1  UNL1        0.0618
     39 H          -5.0778    4.3407   -0.9333 H       1  UNL1        0.0618
     40 H          -3.0948    3.6495    0.3083 H       1  UNL1        0.0624
@<TRIPOS>BOND
     1     1     2   ar
     2     2     3   ar
     3     3     4   ar
     4     4     5   ar
     5     5     6   ar
     6     6     7    1
     7     7     8   ar
     8     8     9   ar
     9     9    10   ar
    10    10    11   ar
    11    11    12   ar
    12    12    13   ar
    13    13    14   ar
    14    12    15   ar
    15    15    16   ar
    16    16    17   ar
    17    17    18   ar
    18    18    19   ar
    19    19    20   ar
    20    20    21   ar
    21    21    22   ar
    22    22    23   ar
    23    23    24   ar
    24    24    25   ar
    25    25    26   ar
    26     6    27   ar
    27    27    28   ar
    28    28     1   ar
    29    27     3   ar
    30    14     7   ar
    31    20    15   ar
    32    26    21   ar
    33    13     9   ar
    34    26    11   ar
    35     1    29    1
    36     2    30    1
    37     4    31    1
    38     8    32    1
    39    16    33    1
    40    17    34    1
    41    18    35    1
    42    19    36    1
    43    22    37    1
    44    23    38    1
    45    24    39    1
    46    25    40    1
