@<TRIPOS>MOLECULE
*****
 41 48 0 0 0
SMALL
GASTEIGER

@<TRIPOS>ATOM
      1 C           5.5125    2.0707    0.8099 C.ar    1  UNL1        0.0028
      2 C           6.6642    1.4119    0.3276 C.ar    1  UNL1       -0.0361
      3 C           6.2235    0.2479   -0.3480 C.ar    1  UNL1        0.0074
      4 C           6.6969   -0.8152   -1.0275 C.ar    1  UNL1       -0.0144
      5 S           5.3304   -1.7745   -1.5128 S.2     1  UNL1       -0.0909
      6 C           4.1710   -0.7057   -0.7807 C.ar    1  UNL1        0.0783
      7 C           2.7480   -0.9037   -0.7994 C.ar    1  UNL1        0.1453
      8 C           2.0391   -1.9424   -1.3797 C.ar    1  UNL1       -0.0008
      9 C           0.6820   -1.6521   -1.1065 C.ar    1  UNL1        0.0591
     10 S          -0.9138   -2.2906   -1.3804 S.2     1  UNL1       -0.0843
     11 C          -1.6773   -0.9599   -0.5176 C.ar    1  UNL1        0.0325
     12 C          -0.6592   -0.1243   -0.0827 C.ar    1  UNL1        0.0434
     13 C          -0.9406    1.0476    0.6491 C.ar    1  UNL1        0.0322
     14 C          -0.1479    2.0148    1.1800 C.ar    1  UNL1        0.1001
     15 O          -0.9692    2.9260    1.7921 O.2     1  UNL1       -0.4698
     16 C          -2.2623    2.4942    1.6222 C.ar    1  UNL1        0.1000
     17 C          -2.2914    1.3155    0.9083 C.ar    1  UNL1        0.0283
     18 C          -3.4228    0.5590    0.5296 C.ar    1  UNL1       -0.0055
     19 C          -4.7783    0.9378    0.8564 C.ar    1  UNL1       -0.0527
     20 C          -5.9031    0.1865    0.4804 C.ar    1  UNL1       -0.0529
     21 C          -5.5584   -0.9562   -0.2382 C.ar    1  UNL1       -0.0102
     22 C          -6.5297   -1.8157   -0.6909 C.ar    1  UNL1       -0.0166
     23 S          -5.8460   -3.1337   -1.5403 S.2     1  UNL1       -0.1039
     24 C          -4.2465   -2.5473   -1.2983 C.ar    1  UNL1       -0.0160
     25 C          -4.2068   -1.3695   -0.5858 C.ar    1  UNL1       -0.0021
     26 C          -3.0468   -0.6397   -0.2253 C.ar    1  UNL1        0.0054
     27 C           0.6334   -0.5007   -0.4037 C.ar    1  UNL1        0.1511
     28 O           1.8857   -0.0109   -0.1956 O.2     1  UNL1       -0.4530
     29 C           4.8547    0.3132   -0.2106 C.ar    1  UNL1        0.0644
     30 N           4.3495    1.3820    0.4746 N.ar    1  UNL1       -0.3597
     31 H           5.4312    2.9907    1.3746 H       1  UNL1        0.0807
     32 H           7.6818    1.7538    0.4625 H       1  UNL1        0.0639
     33 H           7.7089   -1.1017   -1.2738 H       1  UNL1        0.0700
     34 H           2.4368   -2.7881   -1.9217 H       1  UNL1        0.0667
     35 H           0.9105    2.2212    1.2298 H       1  UNL1        0.1036
     36 H          -3.0115    3.1352    2.0650 H       1  UNL1        0.1036
     37 H          -4.9557    1.8508    1.4236 H       1  UNL1        0.0624
     38 H          -6.9129    0.4837    0.7330 H       1  UNL1        0.0624
     39 H          -7.6027   -1.7489   -0.5737 H       1  UNL1        0.0699
     40 H          -3.4502   -3.1401   -1.7152 H       1  UNL1        0.0700
     41 H           3.3730    1.5785    0.6637 H       1  UNL1        0.1654
@<TRIPOS>BOND
     1     1     2   ar
     2     2     3   ar
     3     3     4   ar
     4     4     5   ar
     5     5     6   ar
     6     6     7    1
     7     7     8   ar
     8     8     9   ar
     9     9    10   ar
    10    10    11   ar
    11    11    12   ar
    12    12    13   ar
    13    13    14   ar
    14    14    15   ar
    15    15    16   ar
    16    16    17   ar
    17    17    18   ar
    18    18    19   ar
    19    19    20   ar
    20    20    21   ar
    21    21    22   ar
    22    22    23   ar
    23    23    24   ar
    24    24    25   ar
    25    25    26   ar
    26    12    27   ar
    27    27    28   ar
    28     6    29   ar
    29    29    30   ar
    30    30     1   ar
    31    29     3   ar
    32    28     7   ar
    33    27     9   ar
    34    26    11   ar
    35    17    13   ar
    36    26    18   ar
    37    25    21   ar
    38     1    31    1
    39     2    32    1
    40     4    33    1
    41     8    34    1
    42    14    35    1
    43    16    36    1
    44    19    37    1
    45    20    38    1
    46    22    39    1
    47    24    40    1
    48    30    41    1
