@<TRIPOS>MOLECULE
*****
 38 44 0 0 0
SMALL
GASTEIGER

@<TRIPOS>ATOM
      1 C           6.4348    1.9404    0.3027 C.ar    1  UNL1        0.0028
      2 C           7.1467    0.7313    0.1797 C.ar    1  UNL1       -0.0361
      3 C           6.1863   -0.2983    0.0532 C.ar    1  UNL1        0.0073
      4 C           6.1215   -1.6348   -0.0946 C.ar    1  UNL1       -0.0145
      5 S           4.4462   -2.0661   -0.1653 S.2     1  UNL1       -0.0925
      6 C           3.8845   -0.4158    0.0083 C.ar    1  UNL1        0.0593
      7 C           2.4847   -0.0796    0.0258 C.ar    1  UNL1        0.0567
      8 C           1.8320    1.1367    0.1503 C.ar    1  UNL1       -0.0214
      9 C           0.4360    0.8535    0.0998 C.ar    1  UNL1        0.0402
     10 S          -1.0806    1.6765    0.1692 S.2     1  UNL1       -0.0844
     11 C          -1.9559    0.1821   -0.0072 C.ar    1  UNL1        0.0485
     12 C          -1.0679   -0.8929   -0.1130 C.ar    1  UNL1        0.1025
     13 N          -1.4064   -2.1933   -0.2605 N.ar    1  UNL1       -0.2517
     14 C          -2.7338   -2.4265   -0.3046 C.ar    1  UNL1        0.0361
     15 C          -3.7442   -1.4751   -0.2141 C.ar    1  UNL1        0.0019
     16 C          -5.1210   -1.8828   -0.2780 C.ar    1  UNL1       -0.0519
     17 C          -6.2205   -1.0058   -0.1969 C.ar    1  UNL1       -0.0529
     18 C          -5.8182    0.3175   -0.0459 C.ar    1  UNL1       -0.0102
     19 C          -6.7375    1.3327    0.0528 C.ar    1  UNL1       -0.0166
     20 S          -5.9658    2.8509    0.2304 S.2     1  UNL1       -0.1039
     21 C          -4.3995    2.1388    0.1739 C.ar    1  UNL1       -0.0160
     22 C          -4.4420    0.7713    0.0230 C.ar    1  UNL1       -0.0020
     23 C          -3.3365   -0.1075   -0.0582 C.ar    1  UNL1        0.0076
     24 C           0.2813   -0.4821   -0.0491 C.ar    1  UNL1        0.0804
     25 N           1.5217   -1.0598   -0.0953 N.ar    1  UNL1       -0.3516
     26 C           4.9825    0.3745    0.1104 C.ar    1  UNL1        0.0628
     27 N           5.0569    1.7320    0.2606 N.ar    1  UNL1       -0.3597
     28 H           6.8067    2.9504    0.4189 H       1  UNL1        0.0807
     29 H           8.2244    0.6359    0.1842 H       1  UNL1        0.0639
     30 H           6.9054   -2.3746   -0.1651 H       1  UNL1        0.0700
     31 H           2.2595    2.1197    0.2643 H       1  UNL1        0.0650
     32 H          -2.9795   -3.4808   -0.4239 H       1  UNL1        0.0836
     33 H          -5.3463   -2.9447   -0.3979 H       1  UNL1        0.0624
     34 H          -7.2462   -1.3474   -0.2487 H       1  UNL1        0.0624
     35 H          -7.8172    1.2758    0.0316 H       1  UNL1        0.0699
     36 H          -3.5581    2.8064    0.2589 H       1  UNL1        0.0700
     37 H           1.6642   -2.0574   -0.2030 H       1  UNL1        0.1660
     38 H           4.3021    2.3991    0.3235 H       1  UNL1        0.1654
@<TRIPOS>BOND
     1     1     2   ar
     2     2     3   ar
     3     3     4   ar
     4     4     5   ar
     5     5     6   ar
     6     6     7    1
     7     7     8   ar
     8     8     9   ar
     9     9    10   ar
    10    10    11   ar
    11    11    12   ar
    12    12    13   ar
    13    13    14   ar
    14    14    15   ar
    15    15    16   ar
    16    16    17   ar
    17    17    18   ar
    18    18    19   ar
    19    19    20   ar
    20    20    21   ar
    21    21    22   ar
    22    22    23   ar
    23    12    24   ar
    24    24    25   ar
    25     6    26   ar
    26    26    27   ar
    27    27     1   ar
    28    26     3   ar
    29    25     7   ar
    30    24     9   ar
    31    23    11   ar
    32    23    15   ar
    33    22    18   ar
    34     1    28    1
    35     2    29    1
    36     4    30    1
    37     8    31    1
    38    14    32    1
    39    16    33    1
    40    17    34    1
    41    19    35    1
    42    21    36    1
    43    25    37    1
    44    27    38    1
