@<TRIPOS>MOLECULE
*****
 39 45 0 0 0
SMALL
GASTEIGER

@<TRIPOS>ATOM
      1 C           6.2849    0.6425   -1.5565 C.ar    1  UNL1        0.0028
      2 C           7.0201   -0.1197   -0.6235 C.ar    1  UNL1       -0.0361
      3 C           6.0936   -0.6241    0.3206 C.ar    1  UNL1        0.0073
      4 C           6.0364   -1.3919    1.4270 C.ar    1  UNL1       -0.0145
      5 S           4.3714   -1.4721    1.9228 S.2     1  UNL1       -0.0934
      6 C           3.8189   -0.4595    0.6233 C.ar    1  UNL1        0.0498
      7 C           2.4541   -0.0596    0.4389 C.ar    1  UNL1        0.0296
      8 C           1.9956    1.2347    0.3275 C.ar    1  UNL1       -0.0320
      9 C           0.5813    1.2694    0.1370 C.ar    1  UNL1        0.0282
     10 S          -0.5753    2.5530   -0.0688 S.2     1  UNL1       -0.0856
     11 C          -1.8059    1.4007   -0.1899 C.ar    1  UNL1        0.0454
     12 C          -3.2950    1.7730   -0.4067 C.ar    1  UNL1        0.0616
     13 N          -3.8461    3.0138   -0.5290 N.ar    1  UNL1       -0.3597
     14 C          -5.1986    2.8787   -0.7088 C.ar    1  UNL1        0.0028
     15 C          -5.4932    1.5296   -0.6969 C.ar    1  UNL1       -0.0360
     16 C          -4.2761    0.8115   -0.5029 C.ar    1  UNL1        0.0085
     17 C          -3.8676   -0.5439   -0.3938 C.ar    1  UNL1       -0.0081
     18 C          -4.8573   -1.5421   -0.4892 C.ar    1  UNL1       -0.0534
     19 C          -4.5174   -2.8898   -0.3888 C.ar    1  UNL1       -0.0611
     20 C          -3.1917   -3.2610   -0.1925 C.ar    1  UNL1       -0.0611
     21 C          -2.1896   -2.2899   -0.0944 C.ar    1  UNL1       -0.0534
     22 C          -2.4858   -0.9134   -0.1904 C.ar    1  UNL1       -0.0079
     23 C          -1.4361    0.0714   -0.0870 C.ar    1  UNL1        0.0132
     24 C          -0.0016    0.0267    0.1092 C.ar    1  UNL1        0.0353
     25 S           1.2053   -1.2251    0.3235 S.2     1  UNL1       -0.0865
     26 C           4.8930   -0.1159   -0.1245 C.ar    1  UNL1        0.0619
     27 N           4.9239    0.6510   -1.2560 N.ar    1  UNL1       -0.3597
     28 H           6.6311    1.1827   -2.4286 H       1  UNL1        0.0807
     29 H           8.0900   -0.2786   -0.6508 H       1  UNL1        0.0639
     30 H           6.8155   -1.9052    1.9716 H       1  UNL1        0.0700
     31 H           2.6246    2.1145    0.3885 H       1  UNL1        0.0640
     32 H          -3.3349    3.8858   -0.4912 H       1  UNL1        0.1654
     33 H          -5.8324    3.7472   -0.8282 H       1  UNL1        0.0807
     34 H          -6.4827    1.1084   -0.8152 H       1  UNL1        0.0639
     35 H          -5.9015   -1.2813   -0.6419 H       1  UNL1        0.0624
     36 H          -5.2896   -3.6511   -0.4635 H       1  UNL1        0.0618
     37 H          -2.9303   -4.3137   -0.1138 H       1  UNL1        0.0618
     38 H          -1.1756   -2.6415    0.0595 H       1  UNL1        0.0624
     39 H           4.1446    1.0850   -1.7357 H       1  UNL1        0.1654
@<TRIPOS>BOND
     1     1     2   ar
     2     2     3   ar
     3     3     4   ar
     4     4     5   ar
     5     5     6   ar
     6     6     7    1
     7     7     8   ar
     8     8     9   ar
     9     9    10   ar
    10    10    11   ar
    11    11    12   ar
    12    12    13   ar
    13    13    14   ar
    14    14    15   ar
    15    15    16   ar
    16    16    17   ar
    17    17    18   ar
    18    18    19   ar
    19    19    20   ar
    20    20    21   ar
    21    21    22   ar
    22    22    23   ar
    23    23    24   ar
    24    24    25   ar
    25     6    26   ar
    26    26    27   ar
    27    27     1   ar
    28    26     3   ar
    29    25     7   ar
    30    24     9   ar
    31    23    11   ar
    32    16    12   ar
    33    22    17   ar
    34     1    28    1
    35     2    29    1
    36     4    30    1
    37     8    31    1
    38    13    32    1
    39    14    33    1
    40    15    34    1
    41    18    35    1
    42    19    36    1
    43    20    37    1
    44    21    38    1
    45    27    39    1
