@<TRIPOS>MOLECULE
*****
 40 44 0 0 0
SMALL
GASTEIGER

@<TRIPOS>ATOM
      1 C           7.3198    0.0398    0.9020 C.ar    1  UNL1        0.0028
      2 C           7.5313    0.7188   -0.3140 C.ar    1  UNL1       -0.0361
      3 C           6.2580    0.9354   -0.8893 C.ar    1  UNL1        0.0073
      4 C           5.6998    1.4888   -1.9824 C.ar    1  UNL1       -0.0145
      5 S           3.9853    1.2845   -1.8472 S.2     1  UNL1       -0.0925
      6 C           4.0802    0.4531   -0.3089 C.ar    1  UNL1        0.0593
      7 C           2.9108   -0.0134    0.3835 C.ar    1  UNL1        0.0556
      8 C           2.7365   -0.6784    1.5794 C.ar    1  UNL1       -0.0353
      9 C           1.3458   -0.8867    1.7671 C.ar    1  UNL1       -0.0358
     10 C           0.6671   -0.3491    0.6856 C.ar    1  UNL1        0.0469
     11 N           1.6454    0.1725   -0.1347 N.ar    1  UNL1       -0.3537
     12 C          -0.7724   -0.2932    0.3817 C.ar    1  UNL1       -0.0017
     13 C          -1.7083   -0.8452    1.2633 C.ar    1  UNL1       -0.0520
     14 C          -3.0873   -0.8030    0.9932 C.ar    1  UNL1       -0.0519
     15 C          -3.5968   -0.2067   -0.1719 C.ar    1  UNL1        0.0004
     16 C          -2.6436    0.3439   -1.0486 C.ar    1  UNL1       -0.0519
     17 C          -1.2652    0.3038   -0.7822 C.ar    1  UNL1       -0.0520
     18 C          -5.0493   -0.1434   -0.4911 C.ar    1  UNL1        0.0710
     19 C          -6.0535   -0.6659    0.3269 C.ar    1  UNL1       -0.0357
     20 C          -7.3906   -0.5571   -0.0597 C.ar    1  UNL1       -0.0583
     21 C          -7.7068    0.0702   -1.2545 C.ar    1  UNL1       -0.0436
     22 C          -6.6669    0.5646   -2.0160 C.ar    1  UNL1        0.0283
     23 N          -5.3655    0.4714   -1.6632 N.ar    1  UNL1       -0.2550
     24 C           5.3920    0.3710    0.0250 C.ar    1  UNL1        0.0628
     25 N           5.9642   -0.1897    1.1334 N.ar    1  UNL1       -0.3597
     26 H           8.0397   -0.3042    1.6336 H       1  UNL1        0.0807
     27 H           8.4956    1.0082   -0.7100 H       1  UNL1        0.0639
     28 H           6.1511    1.9849   -2.8292 H       1  UNL1        0.0700
     29 H           3.5014   -0.9965    2.2702 H       1  UNL1        0.0639
     30 H           0.8959   -1.3838    2.6163 H       1  UNL1        0.0639
     31 H           1.4779    0.6389   -1.0139 H       1  UNL1        0.1659
     32 H          -1.3862   -1.3230    2.1849 H       1  UNL1        0.0624
     33 H          -3.7447   -1.2548    1.7299 H       1  UNL1        0.0624
     34 H          -2.9713    0.8221   -1.9716 H       1  UNL1        0.0624
     35 H          -0.6049    0.7544   -1.5163 H       1  UNL1        0.0624
     36 H          -5.8293   -1.1599    1.2643 H       1  UNL1        0.0639
     37 H          -8.1763   -0.9615    0.5723 H       1  UNL1        0.0619
     38 H          -8.7344    0.1712   -1.5835 H       1  UNL1        0.0633
     39 H          -6.8534    1.0658   -2.9614 H       1  UNL1        0.0830
     40 H           5.5090   -0.6475    1.9096 H       1  UNL1        0.1654
@<TRIPOS>BOND
     1     1     2   ar
     2     2     3   ar
     3     3     4   ar
     4     4     5   ar
     5     5     6   ar
     6     6     7    1
     7     7     8   ar
     8     8     9   ar
     9     9    10   ar
    10    10    11   ar
    11    10    12    1
    12    12    13   ar
    13    13    14   ar
    14    14    15   ar
    15    15    16   ar
    16    16    17   ar
    17    15    18    1
    18    18    19   ar
    19    19    20   ar
    20    20    21   ar
    21    21    22   ar
    22    22    23   ar
    23     6    24   ar
    24    24    25   ar
    25    25     1   ar
    26    24     3   ar
    27    11     7   ar
    28    17    12   ar
    29    23    18   ar
    30     1    26    1
    31     2    27    1
    32     4    28    1
    33     8    29    1
    34     9    30    1
    35    11    31    1
    36    13    32    1
    37    14    33    1
    38    16    34    1
    39    17    35    1
    40    19    36    1
    41    20    37    1
    42    21    38    1
    43    22    39    1
    44    25    40    1
