@<TRIPOS>MOLECULE
*****
 40 46 0 0 0
SMALL
GASTEIGER

@<TRIPOS>ATOM
      1 C           4.8826    0.8818   -2.0154 C.ar    1  UNL1        0.0932
      2 C           6.1858    1.0319   -1.5229 C.ar    1  UNL1       -0.0156
      3 C           6.0837    0.7827   -0.1457 C.ar    1  UNL1        0.0278
      4 C           6.8517    0.7339    0.9626 C.ar    1  UNL1       -0.0128
      5 S           5.8165    0.3239    2.3023 S.2     1  UNL1       -0.0909
      6 C           4.3875    0.2357    1.3210 C.ar    1  UNL1        0.0783
      7 C           3.0797   -0.0782    1.8063 C.ar    1  UNL1        0.0572
      8 C           2.6370   -0.3973    3.0750 C.ar    1  UNL1       -0.0352
      9 C           1.2379   -0.6197    3.0031 C.ar    1  UNL1       -0.0353
     10 C           0.8463   -0.4447    1.6893 C.ar    1  UNL1        0.0542
     11 N           1.9748   -0.0998    0.9854 N.ar    1  UNL1       -0.3532
     12 C          -0.4479   -0.5515    1.0818 C.ar    1  UNL1        0.0443
     13 S          -1.8950   -0.2262    1.9646 S.2     1  UNL1       -0.0845
     14 C          -2.9202   -0.5174    0.6141 C.ar    1  UNL1        0.0415
     15 C          -4.3420   -0.3837    0.6660 C.ar    1  UNL1        0.0378
     16 S          -5.3180   -1.2324    1.8389 S.2     1  UNL1       -0.0918
     17 C          -6.8091   -0.5727    1.2493 C.ar    1  UNL1        0.0192
     18 C          -6.5128    0.2424    0.2218 C.ar    1  UNL1        0.1424
     19 O          -7.3983    0.9646   -0.5165 O.2     1  UNL1       -0.4624
     20 C          -6.5208    1.5893   -1.3840 C.ar    1  UNL1        0.0932
     21 C          -5.1753    1.2592   -1.1763 C.ar    1  UNL1       -0.0150
     22 C          -5.1822    0.3506   -0.1009 C.ar    1  UNL1        0.0354
     23 C          -2.1777   -0.8800   -0.4778 C.ar    1  UNL1        0.0352
     24 S          -2.6535   -1.3496   -2.1618 S.2     1  UNL1       -0.0955
     25 C          -0.9354   -1.5719   -2.4311 C.ar    1  UNL1       -0.0231
     26 C          -0.0978   -1.3106   -1.3420 C.ar    1  UNL1       -0.0458
     27 C          -0.8100   -0.8904   -0.1829 C.ar    1  UNL1        0.0060
     28 C           4.7510    0.5126    0.0491 C.ar    1  UNL1        0.1509
     29 O           3.9448    0.5520   -1.0529 O.2     1  UNL1       -0.4617
     30 H           4.4725    0.9767   -3.0127 H       1  UNL1        0.1030
     31 H           7.0603    1.2860   -2.1046 H       1  UNL1        0.0655
     32 H           7.9107    0.8998    1.0991 H       1  UNL1        0.0701
     33 H           3.2487   -0.4653    3.9657 H       1  UNL1        0.0639
     34 H           0.5913   -0.8906    3.8283 H       1  UNL1        0.0639
     35 H           2.0026    0.1300    0.0007 H       1  UNL1        0.1659
     36 H          -7.7765   -0.8049    1.6695 H       1  UNL1        0.0731
     37 H          -7.0035    2.2453   -2.0967 H       1  UNL1        0.1030
     38 H          -4.3337    1.6382   -1.7379 H       1  UNL1        0.0655
     39 H          -0.6308   -1.9061   -3.4138 H       1  UNL1        0.0694
     40 H           0.9750   -1.4436   -1.4049 H       1  UNL1        0.0629
@<TRIPOS>BOND
     1     1     2   ar
     2     2     3   ar
     3     3     4   ar
     4     4     5   ar
     5     5     6   ar
     6     6     7    1
     7     7     8   ar
     8     8     9   ar
     9     9    10   ar
    10    10    11   ar
    11    10    12    1
    12    12    13   ar
    13    13    14   ar
    14    14    15    1
    15    15    16   ar
    16    16    17   ar
    17    17    18   ar
    18    18    19   ar
    19    19    20   ar
    20    20    21   ar
    21    21    22   ar
    22    14    23   ar
    23    23    24   ar
    24    24    25   ar
    25    25    26   ar
    26    26    27   ar
    27     6    28   ar
    28    28    29   ar
    29    29     1   ar
    30    28     3   ar
    31    11     7   ar
    32    27    12   ar
    33    22    15   ar
    34    27    23   ar
    35    22    18   ar
    36     1    30    1
    37     2    31    1
    38     4    32    1
    39     8    33    1
    40     9    34    1
    41    11    35    1
    42    17    36    1
    43    20    37    1
    44    21    38    1
    45    25    39    1
    46    26    40    1
