@<TRIPOS>MOLECULE
*****
 43 49 0 0 0
SMALL
GASTEIGER

@<TRIPOS>ATOM
      1 C          -5.8623   -2.4433    0.9748 C.ar    1  UNL1        0.0932
      2 C          -6.8488   -2.1137    0.0359 C.ar    1  UNL1       -0.0156
      3 C          -6.2626   -1.1277   -0.7726 C.ar    1  UNL1        0.0278
      4 C          -6.5479   -0.3504   -1.8388 C.ar    1  UNL1       -0.0129
      5 S          -5.1395    0.6201   -2.1756 S.2     1  UNL1       -0.0923
      6 C          -4.2321   -0.0473   -0.8595 C.ar    1  UNL1        0.0627
      7 C          -2.8787    0.3460   -0.5511 C.ar    1  UNL1        0.0005
      8 C          -1.8030    0.2001   -1.4608 C.ar    1  UNL1       -0.0522
      9 C          -0.4554    0.5816   -1.1727 C.ar    1  UNL1       -0.0514
     10 C          -0.0463    1.1572    0.0520 C.ar    1  UNL1        0.0065
     11 C           1.3238    1.5460    0.3227 C.ar    1  UNL1        0.0475
     12 C           1.8691    2.7598    0.6927 C.ar    1  UNL1       -0.0358
     13 C           3.2701    2.5878    0.8141 C.ar    1  UNL1       -0.0353
     14 C           3.5703    1.2715    0.5106 C.ar    1  UNL1        0.0547
     15 N           2.3727    0.6624    0.2119 N.ar    1  UNL1       -0.3537
     16 C           4.8359    0.5902    0.4858 C.ar    1  UNL1        0.0497
     17 S           6.3198    1.3650    0.9363 S.2     1  UNL1       -0.0935
     18 C           7.2696   -0.0381    0.6492 C.ar    1  UNL1       -0.0154
     19 C           6.4421   -1.0188    0.2297 C.ar    1  UNL1       -0.0032
     20 C           6.6646   -2.3641   -0.1477 C.ar    1  UNL1       -0.0465
     21 C           5.4848   -3.0164   -0.5198 C.ar    1  UNL1       -0.0231
     22 S           4.0112   -2.0632   -0.4466 S.2     1  UNL1       -0.0955
     23 C           5.0836   -0.7133    0.1241 C.ar    1  UNL1        0.0355
     24 C          -1.1079    1.3107    0.9626 C.ar    1  UNL1       -0.0012
     25 C          -0.9785    1.8177    2.2356 C.ar    1  UNL1       -0.0160
     26 S          -2.4823    1.8711    3.0603 S.2     1  UNL1       -0.1038
     27 C          -3.3207    1.1922    1.7251 C.ar    1  UNL1       -0.0160
     28 C          -2.4771    0.9174    0.6723 C.ar    1  UNL1       -0.0019
     29 C          -5.0046   -0.9650   -0.2442 C.ar    1  UNL1        0.1495
     30 O          -4.6808   -1.7393    0.8290 O.2     1  UNL1       -0.4618
     31 H          -5.8508   -3.1490    1.7954 H       1  UNL1        0.1030
     32 H          -7.8371   -2.5458   -0.0262 H       1  UNL1        0.0655
     33 H          -7.4424   -0.2732   -2.4400 H       1  UNL1        0.0701
     34 H          -2.0024   -0.2322   -2.4425 H       1  UNL1        0.0624
     35 H           0.2877    0.4315   -1.9568 H       1  UNL1        0.0624
     36 H           1.3171    3.6775    0.8527 H       1  UNL1        0.0639
     37 H           3.9814    3.3553    1.0915 H       1  UNL1        0.0639
     38 H           2.2739   -0.3123   -0.0386 H       1  UNL1        0.1659
     39 H           8.3391   -0.0422    0.8043 H       1  UNL1        0.0700
     40 H           7.6288   -2.8577   -0.1566 H       1  UNL1        0.0629
     41 H           5.3906   -4.0434   -0.8463 H       1  UNL1        0.0694
     42 H          -0.0889    2.1665    2.7412 H       1  UNL1        0.0700
     43 H          -4.3861    1.0288    1.8063 H       1  UNL1        0.0700
@<TRIPOS>BOND
     1     1     2   ar
     2     2     3   ar
     3     3     4   ar
     4     4     5   ar
     5     5     6   ar
     6     6     7    1
     7     7     8   ar
     8     8     9   ar
     9     9    10   ar
    10    10    11    1
    11    11    12   ar
    12    12    13   ar
    13    13    14   ar
    14    14    15   ar
    15    14    16    1
    16    16    17   ar
    17    17    18   ar
    18    18    19   ar
    19    19    20   ar
    20    20    21   ar
    21    21    22   ar
    22    22    23   ar
    23    10    24   ar
    24    24    25   ar
    25    25    26   ar
    26    26    27   ar
    27    27    28   ar
    28     6    29   ar
    29    29    30   ar
    30    30     1   ar
    31    29     3   ar
    32    28     7   ar
    33    15    11   ar
    34    23    16   ar
    35    28    24   ar
    36    23    19   ar
    37     1    31    1
    38     2    32    1
    39     4    33    1
    40     8    34    1
    41     9    35    1
    42    12    36    1
    43    13    37    1
    44    15    38    1
    45    18    39    1
    46    20    40    1
    47    21    41    1
    48    25    42    1
    49    27    43    1
