@<TRIPOS>MOLECULE
*****
 41 47 0 0 0
SMALL
GASTEIGER

@<TRIPOS>ATOM
      1 SI         -1.0302   -4.0936    1.2721 Si      1  UNL1        0.0000
      2 C           0.4020   -3.0039    0.7741 C.2     1  UNL1        0.0000
      3 C          -0.0049   -1.7580    0.4456 C.ar    1  UNL1        0.0000
      4 C           0.8839   -0.6609    0.0095 C.ar    1  UNL1        0.0000
      5 C           2.2775   -0.8162   -0.1081 C.ar    1  UNL1        0.0000
      6 C           3.0878    0.2419   -0.5233 C.ar    1  UNL1        0.0000
      7 C           2.4385    1.4330   -0.8063 C.ar    1  UNL1        0.0000
      8 N           1.0993    1.6241   -0.7060 N.ar    1  UNL1        0.0000
      9 C           0.3190    0.5915   -0.3021 C.ar    1  UNL1        0.0000
     10 C          -1.1451    0.8355   -0.2032 C.ar    1  UNL1        0.0000
     11 C          -1.8199    2.0584   -0.4927 C.ar    1  UNL1        0.0000
     12 C          -1.2304    3.2347   -0.9170 C.ar    1  UNL1        0.0000
     13 S          -2.3542    4.5244   -1.1738 S.2     1  UNL1        0.0000
     14 C          -3.6866    3.5445   -0.7214 C.ar    1  UNL1        0.0000
     15 C          -3.2210    2.3033   -0.4017 C.ar    1  UNL1        0.0000
     16 C          -4.0453    1.2333    0.0182 C.ar    1  UNL1        0.0000
     17 C          -5.4239    1.1560    0.2038 C.ar    1  UNL1        0.0000
     18 C          -5.6211   -0.1431    0.6190 C.ar    1  UNL1        0.0000
     19 O          -4.4407   -0.8249    0.6859 O.2     1  UNL1        0.0000
     20 C          -3.4331    0.0343    0.3081 C.ar    1  UNL1        0.0000
     21 C          -2.0416   -0.2154    0.2197 C.ar    1  UNL1        0.0000
     22 C          -1.4680   -1.5416    0.5527 C.ar    1  UNL1        0.0000
     23 C          -2.1450   -2.6360    0.9631 C.2     1  UNL1        0.0000
     24 C           4.5319    0.0973   -0.6500 C.ar    1  UNL1        0.0000
     25 C           5.4261   -0.9368   -0.4438 C.ar    1  UNL1        0.0000
     26 C           6.7145   -0.4319   -0.7480 C.ar    1  UNL1        0.0000
     27 C           6.5318    0.8772   -1.1211 C.ar    1  UNL1        0.0000
     28 O           5.2166    1.2064   -1.0652 O.2     1  UNL1        0.0000
     29 H          -1.2466   -5.2028    0.3126 H       1  UNL1        0.0000
     30 H          -0.9651   -4.4810    2.7016 H       1  UNL1        0.0000
     31 H           1.3997   -3.4088    0.7790 H       1  UNL1        0.0000
     32 H           2.7369   -1.7706    0.1259 H       1  UNL1        0.0000
     33 H           2.9880    2.3116   -1.1365 H       1  UNL1        0.0000
     34 H          -0.1923    3.4594   -1.1069 H       1  UNL1        0.0000
     35 H          -4.6934    3.9371   -0.7213 H       1  UNL1        0.0000
     36 H          -6.1848    1.9096    0.0659 H       1  UNL1        0.0000
     37 H          -6.4974   -0.7135    0.8943 H       1  UNL1        0.0000
     38 H          -3.2040   -2.7483    1.1218 H       1  UNL1        0.0000
     39 H           5.1844   -1.9370   -0.1137 H       1  UNL1        0.0000
     40 H           7.6583   -0.9567   -0.7011 H       1  UNL1        0.0000
     41 H           7.1984    1.6673   -1.4380 H       1  UNL1        0.0000
@<TRIPOS>BOND
     1     1     2    1
     2     2     3    2
     3     3     4   ar
     4     4     5   ar
     5     5     6   ar
     6     6     7   ar
     7     7     8   ar
     8     8     9   ar
     9     9    10   ar
    10    10    11   ar
    11    11    12   ar
    12    12    13   ar
    13    13    14   ar
    14    14    15   ar
    15    15    16   ar
    16    16    17   ar
    17    17    18   ar
    18    18    19   ar
    19    19    20   ar
    20    20    21   ar
    21    21    22   ar
    22    22    23    2
    23     6    24    1
    24    24    25   ar
    25    25    26   ar
    26    26    27   ar
    27    27    28   ar
    28    23     1    1
    29    28    24   ar
    30    22     3   ar
    31     9     4   ar
    32    21    10   ar
    33    15    11   ar
    34    20    16   ar
    35     1    29    1
    36     1    30    1
    37     2    31    1
    38     5    32    1
    39     7    33    1
    40    12    34    1
    41    14    35    1
    42    17    36    1
    43    18    37    1
    44    23    38    1
    45    25    39    1
    46    26    40    1
    47    27    41    1
