@<TRIPOS>MOLECULE
*****
 45 51 0 0 0
SMALL
GASTEIGER

@<TRIPOS>ATOM
      1 C           6.1246    2.0004   -2.0456 C.ar    1  UNL1        0.0932
      2 C           7.3078    1.4168   -1.5736 C.ar    1  UNL1       -0.0156
      3 C           6.8945    0.5152   -0.5807 C.ar    1  UNL1        0.0278
      4 C           7.4065   -0.3743    0.2961 C.ar    1  UNL1       -0.0129
      5 S           6.0751   -1.0642    1.1851 S.2     1  UNL1       -0.0923
      6 C           4.8848   -0.1402    0.3301 C.ar    1  UNL1        0.0627
      7 C           3.4695   -0.2323    0.5958 C.ar    1  UNL1        0.0005
      8 C           2.8994    0.0507    1.8591 C.ar    1  UNL1       -0.0521
      9 C           1.5000   -0.0346    2.1400 C.ar    1  UNL1       -0.0499
     10 C           0.5186   -0.4090    1.1890 C.ar    1  UNL1        0.0255
     11 C          -0.8904   -0.4786    1.5147 C.ar    1  UNL1        0.1363
     12 C          -1.5900   -0.8237    2.6522 C.ar    1  UNL1       -0.0152
     13 C          -2.9642   -0.6435    2.3535 C.ar    1  UNL1       -0.0152
     14 C          -3.0326   -0.1909    1.0516 C.ar    1  UNL1        0.1364
     15 O          -1.7658   -0.0739    0.5515 O.2     1  UNL1       -0.4548
     16 C          -4.0879    0.1893    0.1410 C.ar    1  UNL1        0.0280
     17 C          -3.9213    1.0915   -0.9450 C.ar    1  UNL1       -0.0504
     18 C          -4.9722    1.4865   -1.8488 C.ar    1  UNL1       -0.0604
     19 C          -6.3032    1.0204   -1.7707 C.ar    1  UNL1       -0.0510
     20 C          -6.4404    0.1329   -0.7126 C.ar    1  UNL1        0.0205
     21 C          -7.5804   -0.5307   -0.3482 C.ar    1  UNL1        0.0994
     22 O          -7.3136   -1.3336    0.7256 O.2     1  UNL1       -0.4698
     23 C          -5.9908   -1.1756    1.0420 C.ar    1  UNL1        0.1001
     24 C          -5.4088   -0.2670    0.1941 C.ar    1  UNL1        0.0305
     25 C           1.0806   -0.7118   -0.0684 C.ar    1  UNL1        0.0004
     26 C           0.3733   -1.1610   -1.1613 C.ar    1  UNL1       -0.0159
     27 S           1.3863   -1.4495   -2.5157 S.2     1  UNL1       -0.1038
     28 C           2.7950   -1.0014   -1.6465 C.ar    1  UNL1       -0.0160
     29 C           2.5063   -0.6249   -0.3539 C.ar    1  UNL1       -0.0019
     30 C           5.5266    0.6440   -0.5592 C.ar    1  UNL1        0.1495
     31 O           4.9769    1.5384   -1.4273 O.2     1  UNL1       -0.4618
     32 H           5.9392    2.7486   -2.8055 H       1  UNL1        0.1030
     33 H           8.3073    1.6374   -1.9194 H       1  UNL1        0.0655
     34 H           8.4275   -0.6696    0.4908 H       1  UNL1        0.0701
     35 H           3.5560    0.3644    2.6720 H       1  UNL1        0.0624
     36 H           1.1797    0.2233    3.1504 H       1  UNL1        0.0625
     37 H          -1.1625   -1.1638    3.5849 H       1  UNL1        0.0656
     38 H          -3.7960   -0.8070    3.0228 H       1  UNL1        0.0656
     39 H          -2.9330    1.5258   -1.1106 H       1  UNL1        0.0625
     40 H          -4.7170    2.1901   -2.6427 H       1  UNL1        0.0618
     41 H          -7.0832    1.3197   -2.4559 H       1  UNL1        0.0625
     42 H          -8.5969   -0.5626   -0.7137 H       1  UNL1        0.1035
     43 H          -5.6503   -1.7805    1.8692 H       1  UNL1        0.1036
     44 H          -0.6873   -1.3454   -1.2594 H       1  UNL1        0.0700
     45 H           3.7523   -1.0457   -2.1466 H       1  UNL1        0.0700
@<TRIPOS>BOND
     1     1     2   ar
     2     2     3   ar
     3     3     4   ar
     4     4     5   ar
     5     5     6   ar
     6     6     7    1
     7     7     8   ar
     8     8     9   ar
     9     9    10   ar
    10    10    11    1
    11    11    12   ar
    12    12    13   ar
    13    13    14   ar
    14    14    15   ar
    15    14    16    1
    16    16    17   ar
    17    17    18   ar
    18    18    19   ar
    19    19    20   ar
    20    20    21   ar
    21    21    22   ar
    22    22    23   ar
    23    23    24   ar
    24    10    25   ar
    25    25    26   ar
    26    26    27   ar
    27    27    28   ar
    28    28    29   ar
    29     6    30   ar
    30    30    31   ar
    31    31     1   ar
    32    30     3   ar
    33    29     7   ar
    34    15    11   ar
    35    24    16   ar
    36    29    25   ar
    37    24    20   ar
    38     1    32    1
    39     2    33    1
    40     4    34    1
    41     8    35    1
    42     9    36    1
    43    12    37    1
    44    13    38    1
    45    17    39    1
    46    18    40    1
    47    19    41    1
    48    21    42    1
    49    23    43    1
    50    26    44    1
    51    28    45    1
