@<TRIPOS>MOLECULE
*****
 41 47 0 0 0
SMALL
GASTEIGER

@<TRIPOS>ATOM
      1 C           6.8661    0.5527    1.9022 C.ar    1  UNL1       -0.0231
      2 C           7.4838   -0.4110    1.0964 C.ar    1  UNL1       -0.0465
      3 C           6.5627   -1.0816    0.2568 C.ar    1  UNL1       -0.0032
      4 C           6.6909   -2.0664   -0.6603 C.ar    1  UNL1       -0.0155
      5 S           5.1250   -2.4043   -1.2977 S.2     1  UNL1       -0.0949
      6 C           4.3658   -1.2030   -0.3258 C.ar    1  UNL1        0.0343
      7 C           2.9484   -0.9525   -0.3870 C.ar    1  UNL1        0.0005
      8 C           1.9504   -1.8498    0.0640 C.ar    1  UNL1       -0.0522
      9 C           0.5374   -1.5808   -0.0036 C.ar    1  UNL1       -0.0522
     10 C          -0.0243   -0.3902   -0.5352 C.ar    1  UNL1        0.0010
     11 C          -1.4425   -0.1087   -0.6318 C.ar    1  UNL1        0.0401
     12 C          -2.1966    0.3198   -1.7050 C.ar    1  UNL1        0.0433
     13 N          -3.5420    0.5091   -1.4622 N.ar    1  UNL1       -0.2451
     14 C          -3.8304    0.2228   -0.2062 C.ar    1  UNL1        0.1291
     15 S          -2.4702   -0.2966    0.7275 S.2     1  UNL1       -0.0656
     16 C          -5.1516    0.3039    0.4149 C.ar    1  UNL1        0.1239
     17 N          -5.3817   -0.3435    1.6110 N.ar    1  UNL1       -0.2506
     18 C          -6.6061   -0.3066    2.2198 C.ar    1  UNL1        0.0305
     19 C          -7.7471    0.3446    1.7689 C.ar    1  UNL1       -0.0153
     20 C          -7.5618    1.0257    0.5513 C.ar    1  UNL1        0.1035
     21 N          -8.5092    1.7317   -0.0860 N.ar    1  UNL1       -0.1907
     22 S          -7.8012    2.3386   -1.4577 S.2     1  UNL1        0.1165
     23 N          -6.2662    1.7408   -1.2997 N.ar    1  UNL1       -0.1885
     24 C          -6.2313    1.0192   -0.1641 C.ar    1  UNL1        0.1278
     25 C           0.9768    0.4806   -0.9798 C.ar    1  UNL1        0.0287
     26 C           0.8513    1.7312   -1.5303 C.ar    1  UNL1        0.1000
     27 O           2.0876    2.2346   -1.8267 O.2     1  UNL1       -0.4698
     28 C           3.0149    1.3046   -1.4476 C.ar    1  UNL1        0.1000
     29 C           2.3826    0.2142   -0.9073 C.ar    1  UNL1        0.0287
     30 C           5.2807   -0.5764    0.4759 C.ar    1  UNL1        0.0341
     31 S           5.1252    0.7272    1.7165 S.2     1  UNL1       -0.0955
     32 H           7.3480    1.1960    2.6260 H       1  UNL1        0.0694
     33 H           8.5493   -0.6028    1.1332 H       1  UNL1        0.0629
     34 H           7.5670   -2.6050   -0.9928 H       1  UNL1        0.0700
     35 H           2.2604   -2.8036    0.4941 H       1  UNL1        0.0624
     36 H          -0.1333   -2.3555    0.3723 H       1  UNL1        0.0624
     37 H          -1.8153    0.5086   -2.7017 H       1  UNL1        0.0841
     38 H          -6.6437   -0.8627    3.1569 H       1  UNL1        0.0830
     39 H          -8.6875    0.3335    2.3009 H       1  UNL1        0.0655
     40 H           0.0223    2.3821   -1.7714 H       1  UNL1        0.1036
     41 H           4.0453    1.5795   -1.6249 H       1  UNL1        0.1036
@<TRIPOS>BOND
     1     1     2   ar
     2     2     3   ar
     3     3     4   ar
     4     4     5   ar
     5     5     6   ar
     6     6     7    1
     7     7     8   ar
     8     8     9   ar
     9     9    10   ar
    10    10    11    1
    11    11    12   ar
    12    12    13   ar
    13    13    14   ar
    14    14    15   ar
    15    14    16    1
    16    16    17   ar
    17    17    18   ar
    18    18    19   ar
    19    19    20   ar
    20    20    21   ar
    21    21    22   ar
    22    22    23   ar
    23    23    24   ar
    24    10    25   ar
    25    25    26   ar
    26    26    27   ar
    27    27    28   ar
    28    28    29   ar
    29     6    30   ar
    30    30    31   ar
    31    31     1   ar
    32    30     3   ar
    33    29     7   ar
    34    15    11   ar
    35    24    16   ar
    36    29    25   ar
    37    24    20   ar
    38     1    32    1
    39     2    33    1
    40     4    34    1
    41     8    35    1
    42     9    36    1
    43    12    37    1
    44    18    38    1
    45    19    39    1
    46    26    40    1
    47    28    41    1
