@<TRIPOS>MOLECULE
*****
 47 54 0 0 0
SMALL
GASTEIGER

@<TRIPOS>ATOM
      1 C           6.4583    1.2251    2.2497 C.ar    1  UNL1        0.0028
      2 C           7.4424    1.3515    1.2448 C.ar    1  UNL1       -0.0361
      3 C           6.7991    1.1258    0.0034 C.ar    1  UNL1        0.0073
      4 C           7.0488    1.0819   -1.3212 C.ar    1  UNL1       -0.0145
      5 S           5.5477    0.7200   -2.1270 S.2     1  UNL1       -0.0939
      6 C           4.6541    0.6266   -0.6478 C.ar    1  UNL1        0.0438
      7 C           3.2428    0.3344   -0.6012 C.ar    1  UNL1       -0.0011
      8 C           2.2484    1.2313   -1.0547 C.ar    1  UNL1       -0.0523
      9 C           0.8458    0.9614   -0.9876 C.ar    1  UNL1       -0.0523
     10 C           0.2956   -0.2331   -0.4628 C.ar    1  UNL1       -0.0024
     11 C          -1.1260   -0.5049   -0.4172 C.ar    1  UNL1        0.0297
     12 S          -2.1967    0.5253    0.4844 S.2     1  UNL1       -0.0849
     13 C          -3.6203   -0.3889    0.0815 C.ar    1  UNL1        0.0539
     14 C          -4.9304   -0.0646    0.5499 C.ar    1  UNL1        0.0707
     15 S          -6.1113   -1.2331    1.0680 S.2     1  UNL1       -0.0917
     16 C          -7.3021   -0.0289    1.4652 C.ar    1  UNL1       -0.0128
     17 C          -6.7664    1.1781    1.1903 C.ar    1  UNL1        0.0278
     18 C          -7.1005    2.5397    1.2395 C.ar    1  UNL1       -0.0156
     19 C          -5.9666    3.2054    0.7576 C.ar    1  UNL1        0.0932
     20 O          -4.9258    2.3686    0.4004 O.2     1  UNL1       -0.4618
     21 C          -5.4835    1.1600    0.6967 C.ar    1  UNL1        0.1501
     22 C          -3.2352   -1.4183   -0.7099 C.ar    1  UNL1        0.0627
     23 N          -4.0184   -2.3851   -1.2782 N.ar    1  UNL1       -0.3597
     24 C          -3.0748   -3.1347   -1.9759 C.ar    1  UNL1        0.0028
     25 C          -1.7757   -2.6093   -1.8193 C.ar    1  UNL1       -0.0355
     26 C          -1.8841   -1.4727   -0.9778 C.ar    1  UNL1        0.0151
     27 C           1.2813   -1.1323   -0.0127 C.ar    1  UNL1       -0.0021
     28 C           1.0237   -2.3543    0.5664 C.ar    1  UNL1       -0.0160
     29 S           2.4679   -3.1844    0.9815 S.2     1  UNL1       -0.1038
     30 C           3.4560   -1.9050    0.4052 C.ar    1  UNL1       -0.0160
     31 C           2.7058   -0.8577   -0.0805 C.ar    1  UNL1       -0.0020
     32 C           5.4961    0.8829    0.3767 C.ar    1  UNL1        0.0614
     33 N           5.2072    0.9289    1.7112 N.ar    1  UNL1       -0.3598
     34 H           6.5538    1.3267    3.3232 H       1  UNL1        0.0807
     35 H           8.4856    1.5807    1.4174 H       1  UNL1        0.0639
     36 H           7.9650    1.2335   -1.8728 H       1  UNL1        0.0700
     37 H           2.5591    2.1878   -1.4779 H       1  UNL1        0.0624
     38 H           0.1679    1.7244   -1.3740 H       1  UNL1        0.0624
     39 H          -8.2726   -0.2992    1.8565 H       1  UNL1        0.0701
     40 H          -8.0187    3.0047    1.5682 H       1  UNL1        0.0655
     41 H          -5.7516    4.2560    0.6104 H       1  UNL1        0.1030
     42 H          -5.0217   -2.4975   -1.1908 H       1  UNL1        0.1654
     43 H          -3.4054   -3.9957   -2.5430 H       1  UNL1        0.0807
     44 H          -0.8779   -3.0128   -2.2697 H       1  UNL1        0.0639
     45 H           0.0718   -2.8240    0.7734 H       1  UNL1        0.0700
     46 H           4.5318   -2.0040    0.4621 H       1  UNL1        0.0700
     47 H           4.3095    0.7799    2.1574 H       1  UNL1        0.1654
@<TRIPOS>BOND
     1     1     2   ar
     2     2     3   ar
     3     3     4   ar
     4     4     5   ar
     5     5     6   ar
     6     6     7    1
     7     7     8   ar
     8     8     9   ar
     9     9    10   ar
    10    10    11    1
    11    11    12   ar
    12    12    13   ar
    13    13    14    1
    14    14    15   ar
    15    15    16   ar
    16    16    17   ar
    17    17    18   ar
    18    18    19   ar
    19    19    20   ar
    20    20    21   ar
    21    13    22   ar
    22    22    23   ar
    23    23    24   ar
    24    24    25   ar
    25    25    26   ar
    26    10    27   ar
    27    27    28   ar
    28    28    29   ar
    29    29    30   ar
    30    30    31   ar
    31     6    32   ar
    32    32    33   ar
    33    33     1   ar
    34    32     3   ar
    35    31     7   ar
    36    26    11   ar
    37    31    27   ar
    38    21    14   ar
    39    26    22   ar
    40    21    17   ar
    41     1    34    1
    42     2    35    1
    43     4    36    1
    44     8    37    1
    45     9    38    1
    46    16    39    1
    47    18    40    1
    48    19    41    1
    49    23    42    1
    50    24    43    1
    51    25    44    1
    52    28    45    1
    53    30    46    1
    54    33    47    1
