@<TRIPOS>MOLECULE
*****
 49 55 0 0 0
SMALL
GASTEIGER

@<TRIPOS>ATOM
      1 C          -7.3241   -1.7600   -0.6411 C.ar    1  UNL1        0.0028
      2 C          -8.2121   -0.6929   -0.3829 C.ar    1  UNL1       -0.0361
      3 C          -7.4266    0.4073    0.0393 C.ar    1  UNL1        0.0073
      4 C          -7.5402    1.6883    0.4451 C.ar    1  UNL1       -0.0145
      5 S          -5.9367    2.2757    0.7845 S.2     1  UNL1       -0.0939
      6 C          -5.1805    0.7762    0.3552 C.ar    1  UNL1        0.0432
      7 C          -3.7424    0.5726    0.3923 C.ar    1  UNL1       -0.0093
      8 C          -3.0413    0.2492   -0.7765 C.ar    1  UNL1       -0.0529
      9 C          -1.6586    0.0441   -0.7421 C.ar    1  UNL1       -0.0534
     10 C          -0.9474    0.1611    0.4607 C.ar    1  UNL1       -0.0173
     11 C          -1.6524    0.4841    1.6289 C.ar    1  UNL1       -0.0534
     12 C          -3.0353    0.6900    1.5948 C.ar    1  UNL1       -0.0529
     13 C           0.5085   -0.0541    0.4965 C.ar    1  UNL1       -0.0101
     14 C           0.9707   -1.3504    0.7712 C.ar    1  UNL1       -0.0528
     15 C           2.3316   -1.6271    0.8155 C.ar    1  UNL1       -0.0523
     16 C           3.2709   -0.6135    0.5867 C.ar    1  UNL1       -0.0025
     17 C           4.6811   -0.9811    0.6380 C.ar    1  UNL1        0.0342
     18 S           5.5650   -1.0440    2.1141 S.2     1  UNL1       -0.0949
     19 C           7.0224   -1.5265    1.3271 C.ar    1  UNL1       -0.0155
     20 C           6.7688   -1.6224    0.0024 C.ar    1  UNL1       -0.0032
     21 C           7.5613   -1.9730   -1.1168 C.ar    1  UNL1       -0.0465
     22 C           6.8387   -1.9297   -2.3153 C.ar    1  UNL1       -0.0231
     23 S           5.1457   -1.4644   -2.1913 S.2     1  UNL1       -0.0955
     24 C           5.4728   -1.3289   -0.4219 C.ar    1  UNL1        0.0341
     25 C           2.8401    0.7135    0.3079 C.ar    1  UNL1       -0.0091
     26 C           3.7463    1.7779    0.0724 C.ar    1  UNL1       -0.0534
     27 C           3.3122    3.0749   -0.2000 C.ar    1  UNL1       -0.0611
     28 C           1.9559    3.3476   -0.2436 C.ar    1  UNL1       -0.0611
     29 C           1.0384    2.3224   -0.0150 C.ar    1  UNL1       -0.0534
     30 C           1.4452    0.9943    0.2629 C.ar    1  UNL1       -0.0096
     31 C          -6.1457   -0.0963   -0.0096 C.ar    1  UNL1        0.0614
     32 N          -5.9997   -1.3964   -0.4032 N.ar    1  UNL1       -0.3598
     33 H          -7.5373   -2.7668   -0.9769 H       1  UNL1        0.0807
     34 H          -9.2877   -0.7350   -0.4909 H       1  UNL1        0.0639
     35 H          -8.4111    2.3143    0.5723 H       1  UNL1        0.0700
     36 H          -3.5641    0.1703   -1.7275 H       1  UNL1        0.0624
     37 H          -1.1323   -0.1986   -1.6635 H       1  UNL1        0.0624
     38 H          -1.1230    0.5828    2.5748 H       1  UNL1        0.0624
     39 H          -3.5559    0.9384    2.5174 H       1  UNL1        0.0624
     40 H           0.2611   -2.1560    0.9510 H       1  UNL1        0.0624
     41 H           2.6592   -2.6430    1.0270 H       1  UNL1        0.0624
     42 H           7.9337   -1.7021    1.8810 H       1  UNL1        0.0700
     43 H           8.6084   -2.2476   -1.0790 H       1  UNL1        0.0629
     44 H           7.2134   -2.1527   -3.3051 H       1  UNL1        0.0694
     45 H           4.8206    1.6063    0.0996 H       1  UNL1        0.0624
     46 H           4.0364    3.8656   -0.3759 H       1  UNL1        0.0618
     47 H           1.6051    4.3543   -0.4539 H       1  UNL1        0.0618
     48 H          -0.0190    2.5785   -0.0563 H       1  UNL1        0.0624
     49 H          -5.1403   -1.9272   -0.4810 H       1  UNL1        0.1654
@<TRIPOS>BOND
     1     1     2   ar
     2     2     3   ar
     3     3     4   ar
     4     4     5   ar
     5     5     6   ar
     6     6     7    1
     7     7     8   ar
     8     8     9   ar
     9     9    10   ar
    10    10    11   ar
    11    11    12   ar
    12    10    13    1
    13    13    14   ar
    14    14    15   ar
    15    15    16   ar
    16    16    17    1
    17    17    18   ar
    18    18    19   ar
    19    19    20   ar
    20    20    21   ar
    21    21    22   ar
    22    22    23   ar
    23    23    24   ar
    24    16    25   ar
    25    25    26   ar
    26    26    27   ar
    27    27    28   ar
    28    28    29   ar
    29    29    30   ar
    30     6    31   ar
    31    31    32   ar
    32    32     1   ar
    33    31     3   ar
    34    12     7   ar
    35    30    13   ar
    36    24    17   ar
    37    30    25   ar
    38    24    20   ar
    39     1    33    1
    40     2    34    1
    41     4    35    1
    42     8    36    1
    43     9    37    1
    44    11    38    1
    45    12    39    1
    46    14    40    1
    47    15    41    1
    48    19    42    1
    49    21    43    1
    50    22    44    1
    51    26    45    1
    52    27    46    1
    53    28    47    1
    54    29    48    1
    55    32    49    1
