@<TRIPOS>MOLECULE
*****
 44 49 0 0 0
SMALL
GASTEIGER

@<TRIPOS>ATOM
      1 C           7.3684   -1.4873    0.7108 C.ar    1  UNL1        0.0028
      2 C           8.2282   -0.3954    0.4626 C.ar    1  UNL1       -0.0361
      3 C           7.4068    0.7220    0.1775 C.ar    1  UNL1        0.0073
      4 C           7.4846    2.0284   -0.1471 C.ar    1  UNL1       -0.0145
      5 S           5.8585    2.6217   -0.3264 S.2     1  UNL1       -0.0939
      6 C           5.1423    1.0901    0.0562 C.ar    1  UNL1        0.0446
      7 C           3.7087    0.8814    0.1144 C.ar    1  UNL1        0.0088
      8 C           3.0830    0.4530    1.2844 C.ar    1  UNL1       -0.0500
      9 C           1.6996    0.2567    1.3050 C.ar    1  UNL1       -0.0351
     10 C           0.9539    0.4867    0.1481 C.ar    1  UNL1        0.0724
     11 N           1.5491    0.9122   -0.9956 N.ar    1  UNL1       -0.2543
     12 C           2.8929    1.0999   -0.9879 C.ar    1  UNL1        0.0365
     13 C          -0.5072    0.3049    0.0741 C.ar    1  UNL1        0.0185
     14 C          -1.2931    1.0227   -0.8370 C.ar    1  UNL1       -0.0491
     15 C          -2.6764    0.8371   -0.8943 C.ar    1  UNL1       -0.0351
     16 C          -3.2734   -0.0837   -0.0398 C.ar    1  UNL1        0.0716
     17 N          -2.5494   -0.7856    0.8640 N.ar    1  UNL1       -0.2543
     18 C          -1.2059   -0.5862    0.8869 C.ar    1  UNL1        0.0374
     19 C          -4.7114   -0.3246   -0.0170 C.ar    1  UNL1        0.0085
     20 C          -5.4896   -0.2547    1.1729 C.ar    1  UNL1       -0.0519
     21 C          -6.9061   -0.4574    1.2364 C.ar    1  UNL1       -0.0605
     22 C          -7.7042   -0.7625    0.1165 C.ar    1  UNL1       -0.0535
     23 C          -6.9458   -0.8577   -1.0495 C.ar    1  UNL1       -0.0102
     24 C          -7.5106   -1.1722   -2.2609 C.ar    1  UNL1       -0.0166
     25 S          -6.3235   -1.2525   -3.4987 S.2     1  UNL1       -0.1039
     26 C          -5.0512   -0.8714   -2.4054 C.ar    1  UNL1       -0.0160
     27 C          -5.5156   -0.6537   -1.1274 C.ar    1  UNL1       -0.0017
     28 C           6.1356    0.2029    0.2867 C.ar    1  UNL1        0.0615
     29 N           6.0276   -1.1234    0.5975 N.ar    1  UNL1       -0.3598
     30 H           7.6128   -2.5128    0.9576 H       1  UNL1        0.0807
     31 H           9.3093   -0.4334    0.4864 H       1  UNL1        0.0639
     32 H           8.3416    2.6692   -0.2958 H       1  UNL1        0.0700
     33 H           3.6593    0.2902    2.1925 H       1  UNL1        0.0625
     34 H           1.2268   -0.0501    2.2324 H       1  UNL1        0.0639
     35 H           3.3045    1.4364   -1.9366 H       1  UNL1        0.0836
     36 H          -0.8283    1.7419   -1.5097 H       1  UNL1        0.0625
     37 H          -3.2697    1.4192   -1.5925 H       1  UNL1        0.0639
     38 H          -0.6952   -1.2139    1.6123 H       1  UNL1        0.0836
     39 H          -4.9719   -0.0273    2.1074 H       1  UNL1        0.0624
     40 H          -7.3894   -0.3725    2.2102 H       1  UNL1        0.0618
     41 H          -8.7730   -0.9163    0.1834 H       1  UNL1        0.0624
     42 H          -8.5475   -1.3700   -2.4953 H       1  UNL1        0.0699
     43 H          -4.0379   -0.8393   -2.7803 H       1  UNL1        0.0700
     44 H           5.1829   -1.6731    0.6990 H       1  UNL1        0.1654
@<TRIPOS>BOND
     1     1     2   ar
     2     2     3   ar
     3     3     4   ar
     4     4     5   ar
     5     5     6   ar
     6     6     7    1
     7     7     8   ar
     8     8     9   ar
     9     9    10   ar
    10    10    11   ar
    11    11    12   ar
    12    10    13    1
    13    13    14   ar
    14    14    15   ar
    15    15    16   ar
    16    16    17   ar
    17    17    18   ar
    18    16    19    1
    19    19    20   ar
    20    20    21   ar
    21    21    22   ar
    22    22    23   ar
    23    23    24   ar
    24    24    25   ar
    25    25    26   ar
    26    26    27   ar
    27     6    28   ar
    28    28    29   ar
    29    29     1   ar
    30    28     3   ar
    31    12     7   ar
    32    18    13   ar
    33    27    19   ar
    34    27    23   ar
    35     1    30    1
    36     2    31    1
    37     4    32    1
    38     8    33    1
    39     9    34    1
    40    12    35    1
    41    14    36    1
    42    15    37    1
    43    18    38    1
    44    20    39    1
    45    21    40    1
    46    22    41    1
    47    24    42    1
    48    26    43    1
    49    29    44    1
