@<TRIPOS>MOLECULE
*****
 42 48 0 0 0
SMALL
GASTEIGER

@<TRIPOS>ATOM
      1 C           7.2627   -1.6190    0.6136 C.ar    1  UNL1        0.0028
      2 C           7.7542   -0.6164   -0.2482 C.ar    1  UNL1       -0.0361
      3 C           6.6589    0.2158   -0.5802 C.ar    1  UNL1        0.0074
      4 C           6.3586    1.2983   -1.3246 C.ar    1  UNL1       -0.0144
      5 S           4.6583    1.6036   -1.1379 S.2     1  UNL1       -0.0909
      6 C           4.4260    0.2812   -0.0324 C.ar    1  UNL1        0.0783
      7 C           3.1589   -0.0122    0.5629 C.ar    1  UNL1        0.1442
      8 C           2.8696   -0.5398    1.8086 C.ar    1  UNL1       -0.0146
      9 C           1.4590   -0.6236    1.9112 C.ar    1  UNL1       -0.0147
     10 C           0.9312   -0.1347    0.7291 C.ar    1  UNL1        0.1429
     11 O           1.9745    0.2389   -0.0775 O.2     1  UNL1       -0.4537
     12 C          -0.4358    0.0063    0.3208 C.ar    1  UNL1        0.0642
     13 S          -1.7877   -0.5026    1.2869 S.2     1  UNL1       -0.0824
     14 C          -2.9753   -0.0072    0.1168 C.ar    1  UNL1        0.0460
     15 C          -4.4004   -0.2123    0.3266 C.ar    1  UNL1        0.0189
     16 C          -4.9291   -1.4287    0.8253 C.ar    1  UNL1       -0.0513
     17 C          -6.3070   -1.6559    1.0551 C.ar    1  UNL1       -0.0590
     18 C          -7.2912   -0.6873    0.8107 C.ar    1  UNL1       -0.0335
     19 C          -6.8342    0.5538    0.3094 C.ar    1  UNL1        0.1005
     20 N          -7.6156    1.6030    0.0122 N.ar    1  UNL1       -0.1908
     21 S          -6.6073    2.8072   -0.5171 S.2     1  UNL1        0.1165
     22 N          -5.1395    2.0428   -0.4295 N.ar    1  UNL1       -0.1901
     23 C          -5.3615    0.8069    0.0556 C.ar    1  UNL1        0.1081
     24 C          -2.3152    0.5323   -0.9341 C.ar    1  UNL1        0.0622
     25 N          -2.8391    1.0637   -2.0799 N.ar    1  UNL1       -0.3597
     26 C          -1.6876    1.4243   -2.7745 C.ar    1  UNL1        0.0028
     27 C          -0.5232    1.1137   -2.0433 C.ar    1  UNL1       -0.0354
     28 C          -0.9406    0.5245   -0.8212 C.ar    1  UNL1        0.0180
     29 C           5.6138   -0.3500    0.1187 C.ar    1  UNL1        0.0644
     30 N           5.8973   -1.4697    0.8510 N.ar    1  UNL1       -0.3597
     31 H           7.7864   -2.4461    1.0759 H       1  UNL1        0.0807
     32 H           8.7784   -0.5286   -0.5860 H       1  UNL1        0.0639
     33 H           6.9791    1.9135   -1.9595 H       1  UNL1        0.0700
     34 H           3.5859   -0.8108    2.5706 H       1  UNL1        0.0656
     35 H           0.8934   -0.9864    2.7582 H       1  UNL1        0.0656
     36 H          -4.2450   -2.2512    1.0426 H       1  UNL1        0.0624
     37 H          -6.6162   -2.6283    1.4405 H       1  UNL1        0.0618
     38 H          -8.3432   -0.8723    0.9926 H       1  UNL1        0.0640
     39 H          -3.8184    1.1963   -2.3054 H       1  UNL1        0.1654
     40 H          -1.7866    1.8929   -3.7451 H       1  UNL1        0.0807
     41 H           0.4926    1.3033   -2.3663 H       1  UNL1        0.0639
     42 H           5.2611   -2.0391    1.3941 H       1  UNL1        0.1654
@<TRIPOS>BOND
     1     1     2   ar
     2     2     3   ar
     3     3     4   ar
     4     4     5   ar
     5     5     6   ar
     6     6     7    1
     7     7     8   ar
     8     8     9   ar
     9     9    10   ar
    10    10    11   ar
    11    10    12    1
    12    12    13   ar
    13    13    14   ar
    14    14    15    1
    15    15    16   ar
    16    16    17   ar
    17    17    18   ar
    18    18    19   ar
    19    19    20   ar
    20    20    21   ar
    21    21    22   ar
    22    22    23   ar
    23    14    24   ar
    24    24    25   ar
    25    25    26   ar
    26    26    27   ar
    27    27    28   ar
    28     6    29   ar
    29    29    30   ar
    30    30     1   ar
    31    29     3   ar
    32    11     7   ar
    33    28    12   ar
    34    23    15   ar
    35    28    24   ar
    36    23    19   ar
    37     1    31    1
    38     2    32    1
    39     4    33    1
    40     8    34    1
    41     9    35    1
    42    16    36    1
    43    17    37    1
    44    18    38    1
    45    25    39    1
    46    26    40    1
    47    27    41    1
    48    30    42    1
