@<TRIPOS>MOLECULE
*****
 38 43 0 0 0
SMALL
GASTEIGER

@<TRIPOS>ATOM
      1 C          -7.2611   -0.8948    0.2933 C.ar    1  UNL1        0.0028
      2 C          -7.5463    0.4082   -0.1535 C.ar    1  UNL1       -0.0361
      3 C          -6.3046    1.0447   -0.3712 C.ar    1  UNL1        0.0073
      4 C          -5.8261    2.2336   -0.7785 C.ar    1  UNL1       -0.0145
      5 S          -4.1034    2.1312   -0.7428 S.2     1  UNL1       -0.0934
      6 C          -4.0760    0.4674   -0.1725 C.ar    1  UNL1        0.0497
      7 C          -2.8436   -0.2595    0.0769 C.ar    1  UNL1        0.0285
      8 C          -2.6607   -1.5581    0.5209 C.ar    1  UNL1       -0.0457
      9 C          -1.2866   -1.9308    0.6493 C.ar    1  UNL1       -0.0449
     10 C          -0.4263   -0.9137    0.3021 C.ar    1  UNL1        0.0361
     11 S          -1.2983    0.4757   -0.1734 S.2     1  UNL1       -0.0862
     12 C           1.0109   -0.9502    0.3152 C.ar    1  UNL1        0.0536
     13 C           1.8736   -1.9711    0.6651 C.ar    1  UNL1       -0.0353
     14 C           3.1998   -1.4953    0.5028 C.ar    1  UNL1       -0.0352
     15 C           3.1332   -0.1898    0.0558 C.ar    1  UNL1        0.0572
     16 N           1.7965    0.1189   -0.0504 N.ar    1  UNL1       -0.3532
     17 C           4.1716    0.7417   -0.2628 C.ar    1  UNL1        0.0783
     18 S           3.8899    2.3671   -0.8195 S.2     1  UNL1       -0.0909
     19 C           5.5837    2.7418   -0.9471 C.ar    1  UNL1       -0.0128
     20 C           6.2724    1.6446   -0.5711 C.ar    1  UNL1        0.0278
     21 C           7.5964    1.2058   -0.4203 C.ar    1  UNL1       -0.0156
     22 C           7.4878   -0.1150    0.0319 C.ar    1  UNL1        0.0932
     23 O           6.1871   -0.5587    0.1833 O.2     1  UNL1       -0.4617
     24 C           5.5101    0.5618   -0.2007 C.ar    1  UNL1        0.1509
     25 C          -5.3741    0.0787   -0.0397 C.ar    1  UNL1        0.0619
     26 N          -5.8877   -1.1226    0.3719 N.ar    1  UNL1       -0.3597
     27 H          -7.9392   -1.6933    0.5667 H       1  UNL1        0.0807
     28 H          -8.5368    0.8198   -0.2950 H       1  UNL1        0.0639
     29 H          -6.3406    3.1321   -1.0866 H       1  UNL1        0.0700
     30 H          -3.4514   -2.2509    0.7571 H       1  UNL1        0.0629
     31 H          -0.9570   -2.9071    0.9832 H       1  UNL1        0.0630
     32 H           1.5900   -2.9589    1.0032 H       1  UNL1        0.0639
     33 H           4.1069   -2.0548    0.6946 H       1  UNL1        0.0639
     34 H           1.4363    1.0124   -0.3566 H       1  UNL1        0.1659
     35 H           5.9251    3.7117   -1.2791 H       1  UNL1        0.0701
     36 H           8.5164    1.7417   -0.6035 H       1  UNL1        0.0655
     37 H           8.2339   -0.8565    0.2862 H       1  UNL1        0.1030
     38 H          -5.4018   -1.9579    0.6587 H       1  UNL1        0.1654
@<TRIPOS>BOND
     1     1     2   ar
     2     2     3   ar
     3     3     4   ar
     4     4     5   ar
     5     5     6   ar
     6     6     7    1
     7     7     8   ar
     8     8     9   ar
     9     9    10   ar
    10    10    11   ar
    11    10    12    1
    12    12    13   ar
    13    13    14   ar
    14    14    15   ar
    15    15    16   ar
    16    15    17    1
    17    17    18   ar
    18    18    19   ar
    19    19    20   ar
    20    20    21   ar
    21    21    22   ar
    22    22    23   ar
    23    23    24   ar
    24     6    25   ar
    25    25    26   ar
    26    26     1   ar
    27    25     3   ar
    28    11     7   ar
    29    16    12   ar
    30    24    17   ar
    31    24    20   ar
    32     1    27    1
    33     2    28    1
    34     4    29    1
    35     8    30    1
    36     9    31    1
    37    13    32    1
    38    14    33    1
    39    16    34    1
    40    19    35    1
    41    21    36    1
    42    22    37    1
    43    26    38    1
