@<TRIPOS>MOLECULE
*****
 38 43 0 0 0
SMALL
GASTEIGER

@<TRIPOS>ATOM
      1 C           7.1000   -1.2041    0.4313 C.ar    1  UNL1        0.0028
      2 C           7.6850    0.0157    0.0460 C.ar    1  UNL1       -0.0361
      3 C           6.6244    0.9051   -0.2344 C.ar    1  UNL1        0.0073
      4 C           6.4384    2.1751   -0.6354 C.ar    1  UNL1       -0.0145
      5 S           4.7349    2.4408   -0.7186 S.2     1  UNL1       -0.0934
      6 C           4.3157    0.8117   -0.2041 C.ar    1  UNL1        0.0497
      7 C           2.9428    0.3599   -0.0609 C.ar    1  UNL1        0.0285
      8 C           2.4580   -0.8761    0.3302 C.ar    1  UNL1       -0.0457
      9 C           1.0296   -0.9504    0.3542 C.ar    1  UNL1       -0.0449
     10 C           0.4286    0.2321   -0.0196 C.ar    1  UNL1        0.0361
     11 S           1.6103    1.4091   -0.3923 S.2     1  UNL1       -0.0862
     12 C          -0.9799    0.5178   -0.1093 C.ar    1  UNL1        0.0536
     13 C          -1.6435    1.6740   -0.4743 C.ar    1  UNL1       -0.0353
     14 C          -3.0380    1.4254   -0.3952 C.ar    1  UNL1       -0.0353
     15 C          -3.2173    0.1200    0.0172 C.ar    1  UNL1        0.0542
     16 N          -1.9541   -0.4080    0.1835 N.ar    1  UNL1       -0.3533
     17 C          -4.4117   -0.6446    0.2593 C.ar    1  UNL1        0.0437
     18 S          -4.3349   -2.2993    0.7823 S.2     1  UNL1       -0.0935
     19 C          -6.0413   -2.4803    0.8400 C.ar    1  UNL1       -0.0094
     20 C          -6.6533   -1.3183    0.4728 C.ar    1  UNL1        0.0270
     21 S          -8.4050   -0.9155    0.3460 S.2     1  UNL1       -0.0961
     22 C          -7.8455    0.6696   -0.1552 C.ar    1  UNL1       -0.0231
     23 C          -6.4581    0.8481   -0.2120 C.ar    1  UNL1       -0.0458
     24 C          -5.7284   -0.3191    0.1567 C.ar    1  UNL1        0.0054
     25 C           5.4897    0.1537    0.0032 C.ar    1  UNL1        0.0619
     26 N           5.7074   -1.1360    0.4102 N.ar    1  UNL1       -0.3597
     27 H           7.5731   -2.1328    0.7244 H       1  UNL1        0.0807
     28 H           8.7476    0.2099   -0.0157 H       1  UNL1        0.0639
     29 H           7.1514    2.9488   -0.8800 H       1  UNL1        0.0700
     30 H           3.0667   -1.7238    0.5983 H       1  UNL1        0.0629
     31 H           0.4897   -1.8447    0.6372 H       1  UNL1        0.0630
     32 H          -1.1809    2.6076   -0.7694 H       1  UNL1        0.0639
     33 H          -3.8121    2.1437   -0.6218 H       1  UNL1        0.0639
     34 H          -1.7829   -1.3565    0.4830 H       1  UNL1        0.1659
     35 H          -6.5205   -3.4045    1.1323 H       1  UNL1        0.0705
     36 H          -8.6007    1.4079   -0.3884 H       1  UNL1        0.0694
     37 H          -6.0224    1.7917   -0.5105 H       1  UNL1        0.0629
     38 H           5.0372   -1.8537    0.6370 H       1  UNL1        0.1654
@<TRIPOS>BOND
     1     1     2   ar
     2     2     3   ar
     3     3     4   ar
     4     4     5   ar
     5     5     6   ar
     6     6     7    1
     7     7     8   ar
     8     8     9   ar
     9     9    10   ar
    10    10    11   ar
    11    10    12    1
    12    12    13   ar
    13    13    14   ar
    14    14    15   ar
    15    15    16   ar
    16    15    17    1
    17    17    18   ar
    18    18    19   ar
    19    19    20   ar
    20    20    21   ar
    21    21    22   ar
    22    22    23   ar
    23    23    24   ar
    24     6    25   ar
    25    25    26   ar
    26    26     1   ar
    27    25     3   ar
    28    11     7   ar
    29    16    12   ar
    30    24    17   ar
    31    24    20   ar
    32     1    27    1
    33     2    28    1
    34     4    29    1
    35     8    30    1
    36     9    31    1
    37    13    32    1
    38    14    33    1
    39    16    34    1
    40    19    35    1
    41    22    36    1
    42    23    37    1
    43    26    38    1
