@<TRIPOS>MOLECULE
*****
 43 48 0 0 0
SMALL
GASTEIGER

@<TRIPOS>ATOM
      1 C          -6.8721   -1.2885    0.0648 C.ar    1  UNL1        0.0028
      2 C          -7.5490   -0.1094   -0.3142 C.ar    1  UNL1       -0.0361
      3 C          -6.6013    0.9417   -0.2785 C.ar    1  UNL1        0.0073
      4 C          -6.4944    2.2657   -0.5071 C.ar    1  UNL1       -0.0145
      5 S          -4.8443    2.7185   -0.1976 S.2     1  UNL1       -0.0934
      6 C          -4.3648    1.1059    0.2388 C.ar    1  UNL1        0.0497
      7 C          -3.0460    0.7463    0.6679 C.ar    1  UNL1        0.0285
      8 C          -2.7035    0.0449    1.8085 C.ar    1  UNL1       -0.0458
      9 C          -1.2962   -0.1521    1.9258 C.ar    1  UNL1       -0.0463
     10 C          -0.6042    0.4031    0.8693 C.ar    1  UNL1        0.0205
     11 S          -1.6568    1.1624   -0.2455 S.2     1  UNL1       -0.0877
     12 C           0.8432    0.4193    0.6298 C.ar    1  UNL1       -0.0035
     13 C           1.5481    1.5581    1.0324 C.ar    1  UNL1       -0.0523
     14 C           2.9248    1.6290    0.8599 C.ar    1  UNL1       -0.0499
     15 C           3.6489    0.5645    0.2889 C.ar    1  UNL1        0.0269
     16 C           5.1107    0.7185    0.1746 C.ar    1  UNL1        0.1636
     17 N           5.8850   -0.2308    0.7104 N.ar    1  UNL1       -0.2160
     18 C           7.1912    0.0004    0.6104 C.ar    1  UNL1        0.1200
     19 N           7.7587    1.0612    0.0426 N.ar    1  UNL1       -0.2241
     20 C           6.8879    1.9413   -0.4443 C.ar    1  UNL1        0.1200
     21 N           5.5624    1.8372   -0.4036 N.ar    1  UNL1       -0.2160
     22 C           2.9425   -0.6008   -0.1447 C.ar    1  UNL1       -0.0066
     23 C           3.5831   -1.7009   -0.7710 C.ar    1  UNL1       -0.0533
     24 C           2.8865   -2.8341   -1.1930 C.ar    1  UNL1       -0.0611
     25 C           1.5179   -2.9041   -1.0089 C.ar    1  UNL1       -0.0611
     26 C           0.8509   -1.8383   -0.4078 C.ar    1  UNL1       -0.0534
     27 C           1.5288   -0.6735    0.0320 C.ar    1  UNL1       -0.0090
     28 C          -5.4485    0.3035    0.1238 C.ar    1  UNL1        0.0619
     29 N          -5.5284   -1.0438    0.3421 N.ar    1  UNL1       -0.3597
     30 H          -7.2486   -2.2997    0.1531 H       1  UNL1        0.0807
     31 H          -8.5952   -0.0482   -0.5833 H       1  UNL1        0.0639
     32 H          -7.2300    2.9887   -0.8283 H       1  UNL1        0.0700
     33 H          -3.4259   -0.2987    2.5394 H       1  UNL1        0.0629
     34 H          -0.8141   -0.6702    2.7466 H       1  UNL1        0.0629
     35 H           1.0255    2.3980    1.4862 H       1  UNL1        0.0624
     36 H           3.4478    2.5278    1.1850 H       1  UNL1        0.0625
     37 H           7.8557   -0.7466    1.0313 H       1  UNL1        0.1048
     38 H           7.2966    2.8283   -0.9164 H       1  UNL1        0.1048
     39 H           4.6567   -1.6909   -0.9482 H       1  UNL1        0.0624
     40 H           3.4191   -3.6543   -1.6668 H       1  UNL1        0.0618
     41 H           0.9639   -3.7792   -1.3372 H       1  UNL1        0.0618
     42 H          -0.2279   -1.9261   -0.2944 H       1  UNL1        0.0624
     43 H          -4.7847   -1.6739    0.6171 H       1  UNL1        0.1654
@<TRIPOS>BOND
     1     1     2   ar
     2     2     3   ar
     3     3     4   ar
     4     4     5   ar
     5     5     6   ar
     6     6     7    1
     7     7     8   ar
     8     8     9   ar
     9     9    10   ar
    10    10    11   ar
    11    10    12    1
    12    12    13   ar
    13    13    14   ar
    14    14    15   ar
    15    15    16    1
    16    16    17   ar
    17    17    18   ar
    18    18    19   ar
    19    19    20   ar
    20    20    21   ar
    21    15    22   ar
    22    22    23   ar
    23    23    24   ar
    24    24    25   ar
    25    25    26   ar
    26    26    27   ar
    27     6    28   ar
    28    28    29   ar
    29    29     1   ar
    30    28     3   ar
    31    11     7   ar
    32    27    12   ar
    33    21    16   ar
    34    27    22   ar
    35     1    30    1
    36     2    31    1
    37     4    32    1
    38     8    33    1
    39     9    34    1
    40    13    35    1
    41    14    36    1
    42    18    37    1
    43    20    38    1
    44    23    39    1
    45    24    40    1
    46    25    41    1
    47    26    42    1
    48    29    43    1
