@<TRIPOS>MOLECULE
*****
 39 44 0 0 0
SMALL
GASTEIGER

@<TRIPOS>ATOM
      1 C          -7.6878   -1.8323    0.2276 C.ar    1  UNL1       -0.0231
      2 C          -8.1458   -0.6362    0.7906 C.ar    1  UNL1       -0.0465
      3 C          -7.1248    0.3383    0.8894 C.ar    1  UNL1       -0.0032
      4 C          -7.1032    1.6028    1.3638 C.ar    1  UNL1       -0.0155
      5 S          -5.5021    2.2071    1.1826 S.2     1  UNL1       -0.0944
      6 C          -4.9155    0.7403    0.4777 C.ar    1  UNL1        0.0402
      7 C          -3.5580    0.5571    0.0463 C.ar    1  UNL1        0.0276
      8 C          -3.1239    0.0516   -1.1614 C.ar    1  UNL1       -0.0458
      9 C          -1.7007   -0.0033   -1.2512 C.ar    1  UNL1       -0.0458
     10 C          -1.0675    0.4625   -0.1116 C.ar    1  UNL1        0.0265
     11 S          -2.2324    0.9621    1.0503 S.2     1  UNL1       -0.0872
     12 C           0.3567    0.5523    0.1501 C.ar    1  UNL1        0.0265
     13 C           0.9894    1.0290    1.2862 C.ar    1  UNL1       -0.0458
     14 C           2.4120    0.9709    1.1989 C.ar    1  UNL1       -0.0463
     15 C           2.8427    0.4457   -0.0010 C.ar    1  UNL1        0.0205
     16 S           1.5226    0.0394   -1.0079 S.2     1  UNL1       -0.0877
     17 C           4.2005    0.2207   -0.4677 C.ar    1  UNL1       -0.0031
     18 C           4.7595    0.8505   -1.6080 C.ar    1  UNL1       -0.0529
     19 C           6.1054    0.6471   -2.0548 C.ar    1  UNL1       -0.0606
     20 C           7.0295   -0.2034   -1.4104 C.ar    1  UNL1       -0.0535
     21 C           6.4746   -0.8242   -0.2903 C.ar    1  UNL1       -0.0103
     22 C           7.1859   -1.7020    0.4902 C.ar    1  UNL1       -0.0166
     23 S           6.2250   -2.3093    1.7793 S.2     1  UNL1       -0.1039
     24 C           4.8526   -1.3963    1.2856 C.ar    1  UNL1       -0.0160
     25 C           5.1196   -0.6295    0.1737 C.ar    1  UNL1       -0.0027
     26 C          -5.9298   -0.1792    0.3870 C.ar    1  UNL1        0.0346
     27 S          -5.9905   -1.8819   -0.2279 S.2     1  UNL1       -0.0955
     28 H          -8.2698   -2.7259    0.0469 H       1  UNL1        0.0694
     29 H          -9.1721   -0.4995    1.1096 H       1  UNL1        0.0629
     30 H          -7.8913    2.2030    1.7957 H       1  UNL1        0.0700
     31 H          -3.7899   -0.2640   -1.9558 H       1  UNL1        0.0629
     32 H          -1.1774   -0.3728   -2.1248 H       1  UNL1        0.0629
     33 H           0.4650    1.4115    2.1538 H       1  UNL1        0.0629
     34 H           3.0842    1.3033    1.9816 H       1  UNL1        0.0629
     35 H           4.1388    1.5402   -2.1817 H       1  UNL1        0.0624
     36 H           6.4331    1.1847   -2.9461 H       1  UNL1        0.0618
     37 H           8.0418   -0.3435   -1.7659 H       1  UNL1        0.0624
     38 H           8.2109   -2.0295    0.3821 H       1  UNL1        0.0699
     39 H           3.9328   -1.4872    1.8467 H       1  UNL1        0.0700
@<TRIPOS>BOND
     1     1     2   ar
     2     2     3   ar
     3     3     4   ar
     4     4     5   ar
     5     5     6   ar
     6     6     7    1
     7     7     8   ar
     8     8     9   ar
     9     9    10   ar
    10    10    11   ar
    11    10    12    1
    12    12    13   ar
    13    13    14   ar
    14    14    15   ar
    15    15    16   ar
    16    15    17    1
    17    17    18   ar
    18    18    19   ar
    19    19    20   ar
    20    20    21   ar
    21    21    22   ar
    22    22    23   ar
    23    23    24   ar
    24    24    25   ar
    25     6    26   ar
    26    26    27   ar
    27    27     1   ar
    28    26     3   ar
    29    11     7   ar
    30    16    12   ar
    31    25    17   ar
    32    25    21   ar
    33     1    28    1
    34     2    29    1
    35     4    30    1
    36     8    31    1
    37     9    32    1
    38    13    33    1
    39    14    34    1
    40    18    35    1
    41    19    36    1
    42    20    37    1
    43    22    38    1
    44    24    39    1
