@<TRIPOS>MOLECULE
*****
 48 54 0 0 0
SMALL
GASTEIGER

@<TRIPOS>ATOM
      1 SI          2.6410    3.8434    0.4530 Si      1  UNL1        0.0000
      2 C           1.1211    2.7761    0.6195 C.2     1  UNL1        0.0000
      3 C           1.3925    1.4765    0.3722 C.ar    1  UNL1        0.0000
      4 C           0.4013    0.3897    0.4226 C.ar    1  UNL1        0.0000
      5 C          -0.9516    0.5790    0.7376 C.ar    1  UNL1        0.0000
      6 C          -1.8368   -0.5033    0.7618 C.ar    1  UNL1        0.0000
      7 C          -1.3081   -1.7531    0.4659 C.ar    1  UNL1        0.0000
      8 N          -0.0100   -1.9791    0.1576 N.ar    1  UNL1        0.0000
      9 C           0.8364   -0.9121    0.1373 C.ar    1  UNL1        0.0000
     10 C           2.2456   -1.2128   -0.2052 C.ar    1  UNL1        0.0000
     11 C           2.6386   -2.5185   -0.4809 C.ar    1  UNL1        0.0000
     12 N           3.8922   -2.8962   -0.8015 N.ar    1  UNL1        0.0000
     13 C           4.8259   -1.9395   -0.8573 C.ar    1  UNL1        0.0000
     14 C           6.1127   -2.3343   -1.1871 C.ar    1  UNL1        0.0000
     15 C           7.1508   -1.4167   -1.2705 C.ar    1  UNL1        0.0000
     16 C           6.8520   -0.1009   -1.0132 C.ar    1  UNL1        0.0000
     17 N           5.6143    0.3266   -0.6889 N.ar    1  UNL1        0.0000
     18 C           4.5891   -0.5683   -0.6049 C.ar    1  UNL1        0.0000
     19 C           3.2554   -0.2138   -0.2712 C.ar    1  UNL1        0.0000
     20 C           2.8104    1.1884    0.0291 C.ar    1  UNL1        0.0000
     21 C           3.5824    2.2972    0.0272 C.2     1  UNL1        0.0000
     22 C          -3.2567   -0.3264    1.0891 C.ar    1  UNL1        0.0000
     23 C          -3.6334   -0.3477    2.4447 C.ar    1  UNL1        0.0000
     24 C          -4.9632   -0.1910    2.8208 C.ar    1  UNL1        0.0000
     25 C          -5.9403   -0.0093    1.8467 C.ar    1  UNL1        0.0000
     26 C          -5.6044    0.0204    0.4854 C.ar    1  UNL1        0.0000
     27 C          -6.6054    0.2067   -0.4826 C.ar    1  UNL1        0.0000
     28 C          -6.2940    0.2418   -1.8408 C.ar    1  UNL1        0.0000
     29 C          -4.9759    0.0919   -2.2496 C.ar    1  UNL1        0.0000
     30 C          -3.9691   -0.0944   -1.2997 C.ar    1  UNL1        0.0000
     31 C          -4.2522   -0.1372    0.0867 C.ar    1  UNL1        0.0000
     32 H           2.5360    4.7910   -0.6826 H       1  UNL1        0.0000
     33 H           3.0515    4.4353    1.7490 H       1  UNL1        0.0000
     34 H           0.1795    3.2276    0.8842 H       1  UNL1        0.0000
     35 H          -1.3359    1.5699    0.9634 H       1  UNL1        0.0000
     36 H          -1.9369   -2.6407    0.4662 H       1  UNL1        0.0000
     37 H           1.9255   -3.3406   -0.4514 H       1  UNL1        0.0000
     38 H           6.3078   -3.3859   -1.3835 H       1  UNL1        0.0000
     39 H           8.1565   -1.7263   -1.5284 H       1  UNL1        0.0000
     40 H           7.6141    0.6715   -1.0598 H       1  UNL1        0.0000
     41 H           4.6350    2.3775   -0.1850 H       1  UNL1        0.0000
     42 H          -2.8804   -0.4904    3.2184 H       1  UNL1        0.0000
     43 H          -5.2387   -0.2112    3.8720 H       1  UNL1        0.0000
     44 H          -6.9753    0.1108    2.1608 H       1  UNL1        0.0000
     45 H          -7.6445    0.3272   -0.1832 H       1  UNL1        0.0000
     46 H          -7.0807    0.3867   -2.5764 H       1  UNL1        0.0000
     47 H          -4.7255    0.1194   -3.3070 H       1  UNL1        0.0000
     48 H          -2.9484   -0.2053   -1.6608 H       1  UNL1        0.0000
@<TRIPOS>BOND
     1     1     2    1
     2     2     3    2
     3     3     4   ar
     4     4     5   ar
     5     5     6   ar
     6     6     7   ar
     7     7     8   ar
     8     8     9   ar
     9     9    10   ar
    10    10    11   ar
    11    11    12   ar
    12    12    13   ar
    13    13    14   ar
    14    14    15   ar
    15    15    16   ar
    16    16    17   ar
    17    17    18   ar
    18    18    19   ar
    19    19    20   ar
    20    20    21    2
    21     6    22    1
    22    22    23   ar
    23    23    24   ar
    24    24    25   ar
    25    25    26   ar
    26    26    27   ar
    27    27    28   ar
    28    28    29   ar
    29    29    30   ar
    30    30    31   ar
    31    21     1    1
    32    31    22   ar
    33    20     3   ar
    34    31    26   ar
    35     9     4   ar
    36    19    10   ar
    37    18    13   ar
    38     1    32    1
    39     1    33    1
    40     2    34    1
    41     5    35    1
    42     7    36    1
    43    11    37    1
    44    14    38    1
    45    15    39    1
    46    16    40    1
    47    21    41    1
    48    23    42    1
    49    24    43    1
    50    25    44    1
    51    27    45    1
    52    28    46    1
    53    29    47    1
    54    30    48    1
