@<TRIPOS>MOLECULE
*****
 40 46 0 0 0
SMALL
GASTEIGER

@<TRIPOS>ATOM
      1 C           6.2476   -1.2868   -0.4686 C.ar    1  UNL1        0.0932
      2 C           6.9631   -0.1245   -0.1624 C.ar    1  UNL1       -0.0156
      3 C           5.9812    0.8400    0.1038 C.ar    1  UNL1        0.0278
      4 C           5.8892    2.1379    0.4526 C.ar    1  UNL1       -0.0129
      5 S           4.2036    2.5247    0.5692 S.2     1  UNL1       -0.0923
      6 C           3.6681    0.9156    0.1418 C.ar    1  UNL1        0.0621
      7 C           2.2501    0.5252    0.0479 C.ar    1  UNL1       -0.0071
      8 C           1.8592   -0.7700   -0.2966 C.ar    1  UNL1       -0.0528
      9 C           0.5042   -1.1467   -0.3873 C.ar    1  UNL1       -0.0528
     10 C          -0.5708   -0.2642   -0.1423 C.ar    1  UNL1       -0.0095
     11 C          -0.1610    1.0608    0.2100 C.ar    1  UNL1       -0.0085
     12 C           1.2137    1.4332    0.2994 C.ar    1  UNL1       -0.0451
     13 C          -1.2574    1.9308    0.4518 C.ar    1  UNL1       -0.0026
     14 C          -1.1268    3.2561    0.8063 C.ar    1  UNL1       -0.0160
     15 S          -2.6457    4.0205    1.0230 S.2     1  UNL1       -0.1038
     16 C          -3.4922    2.5792    0.6428 C.ar    1  UNL1       -0.0160
     17 C          -2.6394    1.5352    0.3562 C.ar    1  UNL1       -0.0026
     18 C          -3.0722    0.2277    0.0088 C.ar    1  UNL1       -0.0084
     19 C          -4.4361   -0.1679   -0.0869 C.ar    1  UNL1       -0.0452
     20 C          -4.7751   -1.4895   -0.4388 C.ar    1  UNL1       -0.0102
     21 C          -6.0552   -2.1182   -0.5977 C.ar    1  UNL1       -0.0470
     22 C          -5.9583   -3.4427   -0.9538 C.ar    1  UNL1       -0.0232
     23 S          -4.3357   -3.9442   -1.1007 S.2     1  UNL1       -0.0966
     24 C          -3.7366   -2.3804   -0.6858 C.ar    1  UNL1        0.0199
     25 C          -2.3799   -1.9894   -0.5913 C.ar    1  UNL1       -0.0391
     26 C          -1.9904   -0.6733   -0.2412 C.ar    1  UNL1       -0.0085
     27 C           4.7870    0.1781   -0.0646 C.ar    1  UNL1        0.1495
     28 O           4.8750   -1.1372   -0.4180 O.2     1  UNL1       -0.4618
     29 H           6.5690   -2.2844   -0.7386 H       1  UNL1        0.1030
     30 H           8.0387   -0.0249   -0.1439 H       1  UNL1        0.0655
     31 H           6.6562    2.8745    0.6443 H       1  UNL1        0.0701
     32 H           2.5946   -1.5416   -0.5092 H       1  UNL1        0.0624
     33 H           0.3254   -2.1825   -0.6638 H       1  UNL1        0.0624
     34 H           1.4531    2.4559    0.5719 H       1  UNL1        0.0630
     35 H          -0.2322    3.8425    0.9568 H       1  UNL1        0.0700
     36 H          -4.5719    2.6006    0.6568 H       1  UNL1        0.0700
     37 H          -5.2385    0.5358    0.1080 H       1  UNL1        0.0630
     38 H          -7.0028   -1.6135   -0.4551 H       1  UNL1        0.0629
     39 H          -6.7640   -4.1409   -1.1349 H       1  UNL1        0.0694
     40 H          -1.6367   -2.7516   -0.8014 H       1  UNL1        0.0635
@<TRIPOS>BOND
     1     1     2   ar
     2     2     3   ar
     3     3     4   ar
     4     4     5   ar
     5     5     6   ar
     6     6     7    1
     7     7     8   ar
     8     8     9   ar
     9     9    10   ar
    10    10    11   ar
    11    11    12   ar
    12    11    13   ar
    13    13    14   ar
    14    14    15   ar
    15    15    16   ar
    16    16    17   ar
    17    17    18   ar
    18    18    19   ar
    19    19    20   ar
    20    20    21   ar
    21    21    22   ar
    22    22    23   ar
    23    23    24   ar
    24    24    25   ar
    25    25    26   ar
    26     6    27   ar
    27    27    28   ar
    28    28     1   ar
    29    27     3   ar
    30    12     7   ar
    31    17    13   ar
    32    26    18   ar
    33    26    10   ar
    34    24    20   ar
    35     1    29    1
    36     2    30    1
    37     4    31    1
    38     8    32    1
    39     9    33    1
    40    12    34    1
    41    14    35    1
    42    16    36    1
    43    19    37    1
    44    21    38    1
    45    22    39    1
    46    25    40    1
