@<TRIPOS>MOLECULE
*****
 41 47 0 0 0
SMALL
GASTEIGER

@<TRIPOS>ATOM
      1 C           5.8003    1.8807   -1.0441 C.ar    1  UNL1        0.0028
      2 C           6.7567    1.3054   -0.1798 C.ar    1  UNL1       -0.0361
      3 C           6.0643    0.3998    0.6601 C.ar    1  UNL1        0.0073
      4 C           6.2763   -0.4721    1.6663 C.ar    1  UNL1       -0.0145
      5 S           4.7413   -1.1802    2.0788 S.2     1  UNL1       -0.0939
      6 C           3.8756   -0.2653    0.8857 C.ar    1  UNL1        0.0432
      7 C           2.4380   -0.3697    0.6951 C.ar    1  UNL1       -0.0073
      8 C           1.8382   -1.5934    0.4203 C.ar    1  UNL1       -0.0528
      9 C           0.4553   -1.6714    0.2288 C.ar    1  UNL1       -0.0514
     10 C          -0.3807   -0.5307    0.3033 C.ar    1  UNL1        0.0089
     11 C           0.2481    0.7065    0.5869 C.ar    1  UNL1        0.0722
     12 C           1.6215    0.7620    0.7783 C.ar    1  UNL1       -0.0274
     13 N          -0.4085    1.8688    0.6838 N.ar    1  UNL1       -0.2543
     14 C          -1.7458    1.8711    0.5104 C.ar    1  UNL1        0.0380
     15 C          -2.5070    0.7415    0.2289 C.ar    1  UNL1        0.0254
     16 C          -3.9266    0.8909    0.0668 C.ar    1  UNL1        0.0564
     17 N          -4.7828    1.9767    0.1318 N.ar    1  UNL1       -0.3601
     18 C          -6.0848    1.5812   -0.1044 C.ar    1  UNL1        0.0028
     19 C          -6.1023    0.2200   -0.3286 C.ar    1  UNL1       -0.0360
     20 C          -4.7708   -0.1648   -0.2160 C.ar    1  UNL1        0.0110
     21 C          -4.1696   -1.4311   -0.3425 C.ar    1  UNL1        0.0296
     22 C          -4.7440   -2.6302   -0.6128 C.ar    1  UNL1        0.1000
     23 O          -3.7403   -3.5581   -0.6309 O.2     1  UNL1       -0.4698
     24 C          -2.5629   -2.8977   -0.3678 C.ar    1  UNL1        0.1000
     25 C          -2.7736   -1.5472   -0.1771 C.ar    1  UNL1        0.0289
     26 C          -1.8208   -0.5124    0.1163 C.ar    1  UNL1        0.0054
     27 C           4.7613    0.5174    0.2291 C.ar    1  UNL1        0.0614
     28 N           4.5206    1.3855   -0.7988 N.ar    1  UNL1       -0.3598
     29 H           5.9347    2.6143   -1.8288 H       1  UNL1        0.0807
     30 H           7.8152    1.5293   -0.1814 H       1  UNL1        0.0639
     31 H           7.1849   -0.7495    2.1804 H       1  UNL1        0.0700
     32 H           2.4367   -2.4994    0.3448 H       1  UNL1        0.0624
     33 H           0.0550   -2.6530    0.0185 H       1  UNL1        0.0624
     34 H           2.0651    1.7284    1.0147 H       1  UNL1        0.0645
     35 H          -2.1903    2.8564    0.6116 H       1  UNL1        0.0836
     36 H          -4.5026    2.9281    0.3256 H       1  UNL1        0.1654
     37 H          -6.8849    2.3096   -0.0904 H       1  UNL1        0.0807
     38 H          -6.9735   -0.3844   -0.5414 H       1  UNL1        0.0639
     39 H          -5.7417   -2.9969   -0.8037 H       1  UNL1        0.1036
     40 H          -1.7101   -3.5562   -0.3611 H       1  UNL1        0.1036
     41 H           3.6345    1.5899   -1.2455 H       1  UNL1        0.1654
@<TRIPOS>BOND
     1     1     2   ar
     2     2     3   ar
     3     3     4   ar
     4     4     5   ar
     5     5     6   ar
     6     6     7    1
     7     7     8   ar
     8     8     9   ar
     9     9    10   ar
    10    10    11   ar
    11    11    12   ar
    12    11    13   ar
    13    13    14   ar
    14    14    15   ar
    15    15    16   ar
    16    16    17   ar
    17    17    18   ar
    18    18    19   ar
    19    19    20   ar
    20    20    21   ar
    21    21    22   ar
    22    22    23   ar
    23    23    24   ar
    24    24    25   ar
    25    25    26   ar
    26     6    27   ar
    27    27    28   ar
    28    28     1   ar
    29    27     3   ar
    30    12     7   ar
    31    26    15   ar
    32    26    10   ar
    33    20    16   ar
    34    25    21   ar
    35     1    29    1
    36     2    30    1
    37     4    31    1
    38     8    32    1
    39     9    33    1
    40    12    34    1
    41    14    35    1
    42    17    36    1
    43    18    37    1
    44    19    38    1
    45    22    39    1
    46    24    40    1
    47    28    41    1
