@<TRIPOS>MOLECULE
*****
 37 43 0 0 0
SMALL
GASTEIGER

@<TRIPOS>ATOM
      1 C          -5.3682    1.6767    0.2062 C.ar    1  UNL1        0.0932
      2 C          -6.4265    0.7707    0.0807 C.ar    1  UNL1       -0.0156
      3 C          -5.8106   -0.4806   -0.0618 C.ar    1  UNL1        0.0278
      4 C          -6.1472   -1.7748   -0.2237 C.ar    1  UNL1       -0.0129
      5 S          -4.6751   -2.6856   -0.3122 S.2     1  UNL1       -0.0923
      6 C          -3.6414   -1.2869   -0.1273 C.ar    1  UNL1        0.0622
      7 C          -2.1665   -1.3544   -0.1135 C.ar    1  UNL1       -0.0042
      8 C          -1.4913   -2.5870   -0.2529 C.ar    1  UNL1       -0.0526
      9 C          -0.0872   -2.6960   -0.2452 C.ar    1  UNL1       -0.0498
     10 C           0.6765   -1.5301   -0.0926 C.ar    1  UNL1        0.0294
     11 C           0.0046   -0.3252    0.0435 C.ar    1  UNL1        0.1369
     12 C          -1.3859   -0.1928    0.0389 C.ar    1  UNL1       -0.0104
     13 O           0.8887    0.6993    0.1808 O.2     1  UNL1       -0.4540
     14 C           2.1428    0.1646    0.1346 C.ar    1  UNL1        0.1490
     15 C           2.0638   -1.2129   -0.0335 C.ar    1  UNL1        0.0467
     16 C           3.2567   -1.9292   -0.1026 C.ar    1  UNL1        0.0396
     17 N           4.4528   -1.2875   -0.0071 N.ar    1  UNL1       -0.2541
     18 C           4.5150    0.0437    0.1552 C.ar    1  UNL1        0.0767
     19 C           5.7830    0.6386    0.2462 C.ar    1  UNL1       -0.0335
     20 C           6.0225    2.0194    0.4171 C.ar    1  UNL1       -0.0315
     21 C           4.8769    2.8410    0.4996 C.ar    1  UNL1        0.1007
     22 N           4.8778    4.1720    0.6610 N.ar    1  UNL1       -0.1908
     23 S           3.2850    4.6395    0.6940 S.2     1  UNL1        0.1165
     24 N           2.5297    3.1761    0.5054 N.ar    1  UNL1       -0.1900
     25 C           3.4943    2.2449    0.4068 C.ar    1  UNL1        0.1126
     26 C           3.3500    0.8441    0.2349 C.ar    1  UNL1        0.0713
     27 C          -4.4619   -0.2138   -0.0094 C.ar    1  UNL1        0.1495
     28 O          -4.1159    1.0957    0.1544 O.2     1  UNL1       -0.4618
     29 H          -5.3461    2.7510    0.3367 H       1  UNL1        0.1030
     30 H          -7.4788    1.0149    0.0946 H       1  UNL1        0.0655
     31 H          -7.1152   -2.2497   -0.2956 H       1  UNL1        0.0701
     32 H          -2.0473   -3.5151   -0.3737 H       1  UNL1        0.0624
     33 H           0.3840   -3.6682   -0.3561 H       1  UNL1        0.0625
     34 H          -1.8127    0.7955    0.1523 H       1  UNL1        0.0661
     35 H           3.2984   -3.0050   -0.2324 H       1  UNL1        0.0837
     36 H           6.6512   -0.0201    0.1792 H       1  UNL1        0.0640
     37 H           7.0241    2.4273    0.4814 H       1  UNL1        0.0640
@<TRIPOS>BOND
     1     1     2   ar
     2     2     3   ar
     3     3     4   ar
     4     4     5   ar
     5     5     6   ar
     6     6     7    1
     7     7     8   ar
     8     8     9   ar
     9     9    10   ar
    10    10    11   ar
    11    11    12   ar
    12    11    13   ar
    13    13    14   ar
    14    14    15   ar
    15    15    16   ar
    16    16    17   ar
    17    17    18   ar
    18    18    19   ar
    19    19    20   ar
    20    20    21   ar
    21    21    22   ar
    22    22    23   ar
    23    23    24   ar
    24    24    25   ar
    25    25    26   ar
    26     6    27   ar
    27    27    28   ar
    28    28     1   ar
    29    27     3   ar
    30    12     7   ar
    31    26    14   ar
    32    15    10   ar
    33    26    18   ar
    34    25    21   ar
    35     1    29    1
    36     2    30    1
    37     4    31    1
    38     8    32    1
    39     9    33    1
    40    12    34    1
    41    16    35    1
    42    19    36    1
    43    20    37    1
