@<TRIPOS>MOLECULE
*****
 35 40 0 0 0
SMALL
GASTEIGER

@<TRIPOS>ATOM
      1 C           5.9138   -1.4305   -1.8328 C.ar    1  UNL1       -0.0231
      2 C           6.6115   -0.7578   -0.8229 C.ar    1  UNL1       -0.0465
      3 C           5.7569    0.0138    0.0001 C.ar    1  UNL1       -0.0032
      4 C           5.9751    0.8133    1.0677 C.ar    1  UNL1       -0.0155
      5 S           4.4554    1.4490    1.5736 S.2     1  UNL1       -0.0949
      6 C           3.5858    0.6148    0.3395 C.ar    1  UNL1        0.0336
      7 C           2.1390    0.7147    0.2027 C.ar    1  UNL1       -0.0091
      8 C           1.5341    1.9485   -0.0357 C.ar    1  UNL1       -0.0528
      9 C           0.1448    2.0511   -0.1694 C.ar    1  UNL1       -0.0509
     10 C          -0.6781    0.9023   -0.0639 C.ar    1  UNL1        0.0153
     11 C          -0.0601   -0.3233    0.1767 C.ar    1  UNL1        0.0226
     12 C           1.3397   -0.4334    0.3126 C.ar    1  UNL1       -0.0391
     13 S          -1.2070   -1.5973    0.2757 S.2     1  UNL1       -0.0845
     14 C          -2.5400   -0.5504    0.0004 C.ar    1  UNL1        0.0646
     15 C          -2.1097    0.7651   -0.1652 C.ar    1  UNL1        0.0878
     16 N          -2.9683    1.8019   -0.3979 N.ar    1  UNL1       -0.2531
     17 C          -4.2756    1.4865   -0.4614 C.ar    1  UNL1        0.0375
     18 C          -4.8057    0.2108   -0.3105 C.ar    1  UNL1        0.0196
     19 C          -6.1730   -0.1005   -0.3796 C.ar    1  UNL1       -0.0496
     20 C          -6.5838   -1.4208   -0.2115 C.ar    1  UNL1       -0.0430
     21 C          -5.6182   -2.3885    0.0202 C.ar    1  UNL1        0.0283
     22 N          -4.2946   -2.1300    0.0938 N.ar    1  UNL1       -0.2537
     23 C          -3.9145   -0.8384   -0.0727 C.ar    1  UNL1        0.0882
     24 C           4.4390   -0.1227   -0.4379 C.ar    1  UNL1        0.0341
     25 S           4.1721   -1.1867   -1.8747 S.2     1  UNL1       -0.0955
     26 H           6.3354   -2.0803   -2.5877 H       1  UNL1        0.0694
     27 H           7.6857   -0.8354   -0.7080 H       1  UNL1        0.0629
     28 H           6.8940    1.0679    1.5763 H       1  UNL1        0.0700
     29 H           2.1364    2.8502   -0.1287 H       1  UNL1        0.0624
     30 H          -0.3125    3.0203   -0.3577 H       1  UNL1        0.0625
     31 H           1.7885   -1.4048    0.5064 H       1  UNL1        0.0635
     32 H          -4.9273    2.3376   -0.6481 H       1  UNL1        0.0836
     33 H          -6.9128    0.6745   -0.5623 H       1  UNL1        0.0625
     34 H          -7.6333   -1.6906   -0.2598 H       1  UNL1        0.0633
     35 H          -5.8926   -3.4311    0.1573 H       1  UNL1        0.0830
@<TRIPOS>BOND
     1     1     2   ar
     2     2     3   ar
     3     3     4   ar
     4     4     5   ar
     5     5     6   ar
     6     6     7    1
     7     7     8   ar
     8     8     9   ar
     9     9    10   ar
    10    10    11   ar
    11    11    12   ar
    12    11    13   ar
    13    13    14   ar
    14    14    15   ar
    15    15    16   ar
    16    16    17   ar
    17    17    18   ar
    18    18    19   ar
    19    19    20   ar
    20    20    21   ar
    21    21    22   ar
    22    22    23   ar
    23     6    24   ar
    24    24    25   ar
    25    25     1   ar
    26    24     3   ar
    27    12     7   ar
    28    23    14   ar
    29    15    10   ar
    30    23    18   ar
    31     1    26    1
    32     2    27    1
    33     4    28    1
    34     8    29    1
    35     9    30    1
    36    12    31    1
    37    17    32    1
    38    19    33    1
    39    20    34    1
    40    21    35    1
