@<TRIPOS>MOLECULE
*****
 49 56 0 0 0
SMALL
GASTEIGER

@<TRIPOS>ATOM
      1 C           6.6530    1.8204   -1.6917 C.ar    1  UNL1        0.0932
      2 C           7.7007    1.1238   -1.0762 C.ar    1  UNL1       -0.0156
      3 C           7.0713    0.1434   -0.2945 C.ar    1  UNL1        0.0278
      4 C           7.3782   -0.8671    0.5449 C.ar    1  UNL1       -0.0129
      5 S           5.8826   -1.5833    1.0731 S.2     1  UNL1       -0.0923
      6 C           4.8980   -0.4956    0.1402 C.ar    1  UNL1        0.0621
      7 C           3.4395   -0.5300    0.1284 C.ar    1  UNL1       -0.0071
      8 C           2.7397   -1.7341    0.1442 C.ar    1  UNL1       -0.0528
      9 C           1.3353   -1.7512    0.1473 C.ar    1  UNL1       -0.0527
     10 C           0.5387   -0.5759    0.1690 C.ar    1  UNL1       -0.0066
     11 C           1.2745    0.6164    0.0487 C.ar    1  UNL1        0.0014
     12 C           0.5620    1.7795   -0.1266 C.ar    1  UNL1        0.0360
     13 N          -0.7729    1.8256   -0.2566 N.ar    1  UNL1       -0.2537
     14 C          -1.5160    0.7073   -0.1225 C.ar    1  UNL1        0.0805
     15 C          -2.9154    0.7665   -0.3592 C.ar    1  UNL1        0.0178
     16 C          -3.6469    1.9134   -0.8133 C.ar    1  UNL1        0.0092
     17 C          -3.1856    3.1830   -1.0834 C.ar    1  UNL1        0.0101
     18 N          -4.2490    3.9512   -1.5030 N.ar    1  UNL1       -0.3659
     19 C          -5.3969    3.1960   -1.5176 C.ar    1  UNL1        0.0094
     20 C          -5.0433    1.9400   -1.0966 C.ar    1  UNL1        0.0001
     21 C          -5.9173    0.8842   -0.9832 C.ar    1  UNL1       -0.0520
     22 C          -5.2226   -0.2553   -0.5189 C.ar    1  UNL1       -0.0527
     23 C          -3.7908   -0.3628   -0.1938 C.ar    1  UNL1       -0.0075
     24 C          -3.2115   -1.5535    0.3393 C.ar    1  UNL1       -0.0094
     25 C          -3.9936   -2.7020    0.6540 C.ar    1  UNL1       -0.0534
     26 C          -3.4757   -3.8314    1.2839 C.ar    1  UNL1       -0.0611
     27 C          -2.1527   -3.8382    1.6572 C.ar    1  UNL1       -0.0611
     28 C          -1.3538   -2.7411    1.3387 C.ar    1  UNL1       -0.0534
     29 C          -1.8125   -1.6092    0.6111 C.ar    1  UNL1       -0.0075
     30 C          -0.9262   -0.5251    0.2291 C.ar    1  UNL1        0.0164
     31 C           2.6858    0.6438    0.0638 C.ar    1  UNL1       -0.0442
     32 C           5.7294    0.3461   -0.5120 C.ar    1  UNL1        0.1495
     33 O           5.3921    1.3592   -1.3604 O.2     1  UNL1       -0.4618
     34 H           6.6456    2.6543   -2.3817 H       1  UNL1        0.1030
     35 H           8.7556    1.3219   -1.2002 H       1  UNL1        0.0655
     36 H           8.3339   -1.2386    0.8859 H       1  UNL1        0.0701
     37 H           3.2675   -2.6855    0.1275 H       1  UNL1        0.0624
     38 H           0.8712   -2.7313    0.0684 H       1  UNL1        0.0624
     39 H           1.0540    2.7432   -0.2265 H       1  UNL1        0.0836
     40 H          -2.2020    3.6264   -1.0192 H       1  UNL1        0.0813
     41 H          -4.1877    4.9261   -1.7652 H       1  UNL1        0.1648
     42 H          -6.3405    3.6249   -1.8254 H       1  UNL1        0.0813
     43 H          -6.9744    0.8977   -1.2019 H       1  UNL1        0.0624
     44 H          -5.8582   -1.1313   -0.4007 H       1  UNL1        0.0624
     45 H          -5.0571   -2.7388    0.4401 H       1  UNL1        0.0624
     46 H          -4.1205   -4.6742    1.5162 H       1  UNL1        0.0618
     47 H          -1.7373   -4.6780    2.2070 H       1  UNL1        0.0618
     48 H          -0.3449   -2.7650    1.7425 H       1  UNL1        0.0624
     49 H           3.1968    1.6043    0.0055 H       1  UNL1        0.0630
@<TRIPOS>BOND
     1     1     2   ar
     2     2     3   ar
     3     3     4   ar
     4     4     5   ar
     5     5     6   ar
     6     6     7    1
     7     7     8   ar
     8     8     9   ar
     9     9    10   ar
    10    10    11   ar
    11    11    12   ar
    12    12    13   ar
    13    13    14   ar
    14    14    15   ar
    15    15    16   ar
    16    16    17   ar
    17    17    18   ar
    18    18    19   ar
    19    19    20   ar
    20    20    21   ar
    21    21    22   ar
    22    22    23   ar
    23    23    24   ar
    24    24    25   ar
    25    25    26   ar
    26    26    27   ar
    27    27    28   ar
    28    28    29   ar
    29    29    30   ar
    30    11    31   ar
    31     6    32   ar
    32    32    33   ar
    33    33     1   ar
    34    32     3   ar
    35    31     7   ar
    36    30    10   ar
    37    30    14   ar
    38    23    15   ar
    39    29    24   ar
    40    20    16   ar
    41     1    34    1
    42     2    35    1
    43     4    36    1
    44     8    37    1
    45     9    38    1
    46    12    39    1
    47    17    40    1
    48    18    41    1
    49    19    42    1
    50    21    43    1
    51    22    44    1
    52    25    45    1
    53    26    46    1
    54    27    47    1
    55    28    48    1
    56    31    49    1
