@<TRIPOS>MOLECULE
*****
 37 43 0 0 0
SMALL
GASTEIGER

@<TRIPOS>ATOM
      1 C          -6.4737    1.8841    0.6562 C.ar    1  UNL1       -0.0231
      2 C          -6.9008    0.7270    0.0039 C.ar    1  UNL1       -0.0465
      3 C          -5.8244   -0.1064   -0.3752 C.ar    1  UNL1       -0.0032
      4 C          -5.8038   -1.2926   -1.0139 C.ar    1  UNL1       -0.0155
      5 S          -4.1711   -1.7707   -1.1649 S.2     1  UNL1       -0.0949
      6 C          -3.5397   -0.3533   -0.3589 C.ar    1  UNL1        0.0336
      7 C          -2.0750   -0.1717   -0.1649 C.ar    1  UNL1       -0.0096
      8 C          -1.5245    0.9529    0.4778 C.ar    1  UNL1       -0.0528
      9 C          -0.1421    1.1233    0.6603 C.ar    1  UNL1       -0.0498
     10 C           0.7496    0.1525    0.1949 C.ar    1  UNL1        0.0273
     11 C           2.1460    0.2925    0.3618 C.ar    1  UNL1        0.1477
     12 O           2.8019    1.3366    0.9681 O.2     1  UNL1       -0.4525
     13 C           4.1382    1.0551    0.9037 C.ar    1  UNL1        0.1545
     14 C           5.1698    1.8437    1.3968 C.ar    1  UNL1       -0.0158
     15 C           6.4514    1.3300    1.2035 C.ar    1  UNL1       -0.0401
     16 C           6.6117    0.1084    0.5549 C.ar    1  UNL1        0.0285
     17 N           5.6141   -0.6663    0.0717 N.ar    1  UNL1       -0.2511
     18 C           4.3688   -0.1624    0.2620 C.ar    1  UNL1        0.1187
     19 C           3.0914   -0.6137   -0.0652 C.ar    1  UNL1        0.0749
     20 C           2.6533   -1.7920   -0.7296 C.ar    1  UNL1        0.1133
     21 N           3.4763   -2.7247   -1.1789 N.ar    1  UNL1       -0.1900
     22 S           2.4345   -3.8466   -1.8524 S.2     1  UNL1        0.1165
     23 N           0.9581   -3.1152   -1.5545 N.ar    1  UNL1       -0.1901
     24 C           1.2138   -1.9551   -0.9118 C.ar    1  UNL1        0.1084
     25 C           0.2451   -0.9948   -0.4571 C.ar    1  UNL1        0.0144
     26 C          -1.1538   -1.1393   -0.6267 C.ar    1  UNL1       -0.0435
     27 C          -4.6003    0.4553    0.0080 C.ar    1  UNL1        0.0341
     28 S          -4.7444    2.0588    0.8637 S.2     1  UNL1       -0.0955
     29 H          -7.1004    2.6765    1.0426 H       1  UNL1        0.0694
     30 H          -7.9476    0.5161   -0.1784 H       1  UNL1        0.0629
     31 H          -6.6157   -1.8970   -1.3931 H       1  UNL1        0.0700
     32 H          -2.1476    1.7479    0.8660 H       1  UNL1        0.0624
     33 H           0.2213    2.0161    1.1658 H       1  UNL1        0.0625
     34 H           4.9843    2.7870    1.8935 H       1  UNL1        0.0655
     35 H           7.3211    1.8764    1.5553 H       1  UNL1        0.0634
     36 H           7.6091   -0.2990    0.4004 H       1  UNL1        0.0830
     37 H          -1.4948   -2.0395   -1.1347 H       1  UNL1        0.0631
@<TRIPOS>BOND
     1     1     2   ar
     2     2     3   ar
     3     3     4   ar
     4     4     5   ar
     5     5     6   ar
     6     6     7    1
     7     7     8   ar
     8     8     9   ar
     9     9    10   ar
    10    10    11   ar
    11    11    12   ar
    12    12    13   ar
    13    13    14   ar
    14    14    15   ar
    15    15    16   ar
    16    16    17   ar
    17    17    18   ar
    18    18    19   ar
    19    19    20   ar
    20    20    21   ar
    21    21    22   ar
    22    22    23   ar
    23    23    24   ar
    24    24    25   ar
    25    25    26   ar
    26     6    27   ar
    27    27    28   ar
    28    28     1   ar
    29    27     3   ar
    30    26     7   ar
    31    25    10   ar
    32    19    11   ar
    33    24    20   ar
    34    18    13   ar
    35     1    29    1
    36     2    30    1
    37     4    31    1
    38     8    32    1
    39     9    33    1
    40    14    34    1
    41    15    35    1
    42    16    36    1
    43    26    37    1
