@<TRIPOS>MOLECULE
*****
 38 43 0 0 0
SMALL
GASTEIGER

@<TRIPOS>ATOM
      1 C           7.3565    0.8046   -1.9301 C.ar    1  UNL1        0.0932
      2 C           8.1716    0.0649   -1.0649 C.ar    1  UNL1       -0.0156
      3 C           7.2856   -0.5200   -0.1483 C.ar    1  UNL1        0.0278
      4 C           7.3014   -1.3286    0.9303 C.ar    1  UNL1       -0.0128
      5 S           5.6570   -1.5330    1.4532 S.2     1  UNL1       -0.0917
      6 C           4.9998   -0.5186    0.1964 C.ar    1  UNL1        0.0702
      7 C           3.6054   -0.2219    0.0104 C.ar    1  UNL1        0.0495
      8 C           3.0114    0.5636   -0.9621 C.ar    1  UNL1        0.0438
      9 N           1.6346    0.6788   -0.9044 N.ar    1  UNL1       -0.2462
     10 C           1.1650   -0.0169    0.1096 C.ar    1  UNL1        0.1154
     11 S           2.3632   -0.8342    1.0327 S.2     1  UNL1       -0.0661
     12 C          -0.2452   -0.0895    0.4246 C.ar    1  UNL1        0.0449
     13 C          -0.8652   -0.7504    1.4710 C.ar    1  UNL1       -0.0443
     14 C          -2.2836   -0.5947    1.4614 C.ar    1  UNL1       -0.0463
     15 C          -2.7237    0.1788    0.4068 C.ar    1  UNL1        0.0207
     16 S          -1.4102    0.7123   -0.5525 S.2     1  UNL1       -0.0862
     17 C          -4.0791    0.5607    0.0520 C.ar    1  UNL1       -0.0006
     18 C          -4.5204    1.8865   -0.1983 C.ar    1  UNL1       -0.0528
     19 C          -5.8789    2.2404   -0.5287 C.ar    1  UNL1       -0.0605
     20 C          -6.9393    1.3120   -0.6453 C.ar    1  UNL1       -0.0510
     21 C          -6.4807    0.0250   -0.4006 C.ar    1  UNL1        0.0205
     22 C          -7.2153   -1.1294   -0.4357 C.ar    1  UNL1        0.0994
     23 O          -6.4023   -2.1941   -0.1566 O.2     1  UNL1       -0.4698
     24 C          -5.1402   -1.7068    0.0547 C.ar    1  UNL1        0.1000
     25 C          -5.1404   -0.3405   -0.0709 C.ar    1  UNL1        0.0280
     26 C           6.0442   -0.0824   -0.5451 C.ar    1  UNL1        0.1500
     27 O           6.0075    0.7371   -1.6349 O.2     1  UNL1       -0.4618
     28 H           7.5857    1.4214   -2.7897 H       1  UNL1        0.1030
     29 H           9.2477   -0.0167   -1.1192 H       1  UNL1        0.0655
     30 H           8.1230   -1.8066    1.4446 H       1  UNL1        0.0701
     31 H           3.5339    1.0876   -1.7536 H       1  UNL1        0.0841
     32 H          -0.3368   -1.3231    2.2237 H       1  UNL1        0.0630
     33 H          -2.9458   -1.0261    2.2031 H       1  UNL1        0.0629
     34 H          -3.7964    2.7004   -0.1317 H       1  UNL1        0.0624
     35 H          -6.0979    3.2958   -0.6991 H       1  UNL1        0.0618
     36 H          -7.9529    1.5895   -0.8966 H       1  UNL1        0.0625
     37 H          -8.2495   -1.3723   -0.6332 H       1  UNL1        0.1035
     38 H          -4.3895   -2.4537    0.2703 H       1  UNL1        0.1036
@<TRIPOS>BOND
     1     1     2   ar
     2     2     3   ar
     3     3     4   ar
     4     4     5   ar
     5     5     6   ar
     6     6     7    1
     7     7     8   ar
     8     8     9   ar
     9     9    10   ar
    10    10    11   ar
    11    10    12    1
    12    12    13   ar
    13    13    14   ar
    14    14    15   ar
    15    15    16   ar
    16    15    17    1
    17    17    18   ar
    18    18    19   ar
    19    19    20   ar
    20    20    21   ar
    21    21    22   ar
    22    22    23   ar
    23    23    24   ar
    24    24    25   ar
    25     6    26   ar
    26    26    27   ar
    27    27     1   ar
    28    26     3   ar
    29    11     7   ar
    30    16    12   ar
    31    25    17   ar
    32    25    21   ar
    33     1    28    1
    34     2    29    1
    35     4    30    1
    36     8    31    1
    37    13    32    1
    38    14    33    1
    39    18    34    1
    40    19    35    1
    41    20    36    1
    42    22    37    1
    43    24    38    1
