@<TRIPOS>MOLECULE
*****
 40 46 0 0 0
SMALL
GASTEIGER

@<TRIPOS>ATOM
      1 C          -6.8236    2.1713   -1.5553 C.ar    1  UNL1        0.0028
      2 C          -7.7616    1.1566   -1.2630 C.ar    1  UNL1       -0.0361
      3 C          -7.0777    0.1591   -0.5264 C.ar    1  UNL1        0.0073
      4 C          -7.2801   -1.0383    0.0616 C.ar    1  UNL1       -0.0145
      5 S          -5.7661   -1.5461    0.7516 S.2     1  UNL1       -0.0934
      6 C          -4.9260   -0.1180    0.2327 C.ar    1  UNL1        0.0512
      7 C          -3.5541    0.1463    0.5144 C.ar    1  UNL1        0.0479
      8 C          -3.0234    1.1796    1.2579 C.ar    1  UNL1        0.0438
      9 N          -1.6445    1.2032    1.3573 N.ar    1  UNL1       -0.2466
     10 C          -1.1289    0.1975    0.6768 C.ar    1  UNL1        0.1124
     11 S          -2.2846   -0.8450   -0.0619 S.2     1  UNL1       -0.0665
     12 C           0.2937   -0.0875    0.6323 C.ar    1  UNL1        0.0534
     13 C           1.1152    0.0463    1.7513 C.ar    1  UNL1        0.0402
     14 N           2.4626   -0.1930    1.8301 N.ar    1  UNL1       -0.2514
     15 C           3.1830   -0.5893    0.7337 C.ar    1  UNL1        0.1076
     16 C           4.5982   -0.8424    0.9147 C.ar    1  UNL1        0.0635
     17 S           5.2110   -1.5820    2.3711 S.2     1  UNL1       -0.0924
     18 C           6.8666   -1.4969    1.8571 C.ar    1  UNL1       -0.0145
     19 C           6.8821   -0.9272    0.6370 C.ar    1  UNL1        0.0073
     20 C           7.7912   -0.5274   -0.3709 C.ar    1  UNL1       -0.0361
     21 C           7.0266    0.0290   -1.4171 C.ar    1  UNL1        0.0028
     22 N           5.6642    0.0036   -1.1266 N.ar    1  UNL1       -0.3597
     23 C           5.6562   -0.5762    0.1126 C.ar    1  UNL1        0.0630
     24 C           2.4879   -0.7317   -0.4956 C.ar    1  UNL1        0.1270
     25 N           2.9841   -1.0807   -1.6983 N.ar    1  UNL1       -0.1886
     26 S           1.7187   -1.1024   -2.7633 S.2     1  UNL1        0.1166
     27 N           0.4807   -0.6361   -1.7714 N.ar    1  UNL1       -0.1900
     28 C           0.9909   -0.4716   -0.5375 C.ar    1  UNL1        0.1131
     29 C          -5.7998    0.6668   -0.4375 C.ar    1  UNL1        0.0620
     30 N          -5.5644    1.8735   -1.0373 N.ar    1  UNL1       -0.3597
     31 H          -6.9579    3.0938   -2.1065 H       1  UNL1        0.0807
     32 H          -8.8008    1.1615   -1.5633 H       1  UNL1        0.0639
     33 H          -8.1694   -1.6470    0.1369 H       1  UNL1        0.0700
     34 H          -3.5986    1.9438    1.7662 H       1  UNL1        0.0841
     35 H           0.6808    0.3688    2.6996 H       1  UNL1        0.0837
     36 H           7.6736   -1.8559    2.4783 H       1  UNL1        0.0700
     37 H           8.8691   -0.6198   -0.3652 H       1  UNL1        0.0639
     38 H           7.3514    0.4422   -2.3635 H       1  UNL1        0.0807
     39 H           4.8657    0.2858   -1.6840 H       1  UNL1        0.1654
     40 H          -4.6922    2.3858   -1.0902 H       1  UNL1        0.1654
@<TRIPOS>BOND
     1     1     2   ar
     2     2     3   ar
     3     3     4   ar
     4     4     5   ar
     5     5     6   ar
     6     6     7    1
     7     7     8   ar
     8     8     9   ar
     9     9    10   ar
    10    10    11   ar
    11    10    12    1
    12    12    13   ar
    13    13    14   ar
    14    14    15   ar
    15    15    16    1
    16    16    17   ar
    17    17    18   ar
    18    18    19   ar
    19    19    20   ar
    20    20    21   ar
    21    21    22   ar
    22    22    23   ar
    23    15    24   ar
    24    24    25   ar
    25    25    26   ar
    26    26    27   ar
    27    27    28   ar
    28     6    29   ar
    29    29    30   ar
    30    30     1   ar
    31    29     3   ar
    32    11     7   ar
    33    28    12   ar
    34    23    16   ar
    35    28    24   ar
    36    23    19   ar
    37     1    31    1
    38     2    32    1
    39     4    33    1
    40     8    34    1
    41    13    35    1
    42    18    36    1
    43    20    37    1
    44    21    38    1
    45    22    39    1
    46    30    40    1
