@<TRIPOS>MOLECULE
*****
 47 54 0 0 0
SMALL
GASTEIGER

@<TRIPOS>ATOM
      1 C           6.7767   -0.5865   -1.9419 C.ar    1  UNL1        0.0028
      2 C           7.5892    0.0387   -0.9715 C.ar    1  UNL1       -0.0361
      3 C           6.7544    0.3518    0.1282 C.ar    1  UNL1        0.0073
      4 C           6.7933    0.9260    1.3477 C.ar    1  UNL1       -0.0145
      5 S           5.1828    0.8702    2.0054 S.2     1  UNL1       -0.0939
      6 C           4.5290    0.0628    0.6181 C.ar    1  UNL1        0.0447
      7 C           3.1364   -0.3321    0.5154 C.ar    1  UNL1        0.0108
      8 C           2.7816   -1.6722    0.3567 C.ar    1  UNL1        0.0367
      9 N           1.5256   -2.1560    0.2140 N.ar    1  UNL1       -0.2522
     10 C           0.5477   -1.2173    0.2630 C.ar    1  UNL1        0.0968
     11 C           0.8087    0.1380    0.4318 C.ar    1  UNL1        0.0666
     12 C           2.1141    0.6203    0.5576 C.ar    1  UNL1       -0.0265
     13 N          -0.4027    0.7984    0.4085 N.ar    1  UNL1       -0.3524
     14 C          -1.4759   -0.0743    0.2911 C.ar    1  UNL1        0.0580
     15 C          -0.8439   -1.3048    0.1465 C.ar    1  UNL1        0.0345
     16 C          -1.6487   -2.4487   -0.1099 C.ar    1  UNL1        0.0009
     17 C          -1.1888   -3.7227   -0.2748 C.ar    1  UNL1       -0.0159
     18 S          -2.5218   -4.7543   -0.6087 S.2     1  UNL1       -0.1038
     19 C          -3.6454   -3.4434   -0.5241 C.ar    1  UNL1       -0.0160
     20 C          -3.0371   -2.2352   -0.2417 C.ar    1  UNL1       -0.0024
     21 C          -3.7256   -0.9960   -0.1075 C.ar    1  UNL1       -0.0071
     22 C          -5.1118   -0.8494   -0.3036 C.ar    1  UNL1       -0.0528
     23 C          -5.7139    0.3934   -0.1537 C.ar    1  UNL1       -0.0534
     24 C          -4.9787    1.5098    0.2527 C.ar    1  UNL1       -0.0172
     25 C          -5.6612    2.7253    0.4323 C.ar    1  UNL1       -0.0540
     26 C          -5.0061    3.8592    0.8983 C.ar    1  UNL1       -0.0612
     27 C          -3.6620    3.7801    1.2150 C.ar    1  UNL1       -0.0611
     28 C          -2.9710    2.5768    1.0300 C.ar    1  UNL1       -0.0534
     29 C          -3.5808    1.4080    0.5004 C.ar    1  UNL1       -0.0082
     30 C          -2.9156    0.1401    0.2435 C.ar    1  UNL1        0.0144
     31 C           5.5247   -0.1178   -0.2778 C.ar    1  UNL1        0.0615
     32 N           5.4530   -0.6904   -1.5170 N.ar    1  UNL1       -0.3598
     33 H           7.0426   -0.9680   -2.9196 H       1  UNL1        0.0807
     34 H           8.6484    0.2342   -1.0755 H       1  UNL1        0.0639
     35 H           7.6136    1.3683    1.8939 H       1  UNL1        0.0700
     36 H           3.5495   -2.4441    0.3402 H       1  UNL1        0.0836
     37 H           2.3216    1.6788    0.6731 H       1  UNL1        0.0645
     38 H          -0.4743    1.8022    0.4065 H       1  UNL1        0.1660
     39 H          -0.1807   -4.1109   -0.2259 H       1  UNL1        0.0700
     40 H          -4.6898   -3.6656   -0.6854 H       1  UNL1        0.0700
     41 H          -5.7365   -1.6898   -0.5901 H       1  UNL1        0.0624
     42 H          -6.7850    0.4722   -0.3317 H       1  UNL1        0.0624
     43 H          -6.7271    2.7951    0.2220 H       1  UNL1        0.0624
     44 H          -5.5520    4.7877    1.0401 H       1  UNL1        0.0618
     45 H          -3.1475    4.6458    1.6243 H       1  UNL1        0.0618
     46 H          -1.9473    2.5680    1.3774 H       1  UNL1        0.0624
     47 H           4.6382   -1.0717   -1.9836 H       1  UNL1        0.1654
@<TRIPOS>BOND
     1     1     2   ar
     2     2     3   ar
     3     3     4   ar
     4     4     5   ar
     5     5     6   ar
     6     6     7    1
     7     7     8   ar
     8     8     9   ar
     9     9    10   ar
    10    10    11   ar
    11    11    12   ar
    12    11    13   ar
    13    13    14   ar
    14    14    15   ar
    15    15    16   ar
    16    16    17   ar
    17    17    18   ar
    18    18    19   ar
    19    19    20   ar
    20    20    21   ar
    21    21    22   ar
    22    22    23   ar
    23    23    24   ar
    24    24    25   ar
    25    25    26   ar
    26    26    27   ar
    27    27    28   ar
    28    28    29   ar
    29    29    30   ar
    30     6    31   ar
    31    31    32   ar
    32    32     1   ar
    33    31     3   ar
    34    12     7   ar
    35    30    14   ar
    36    15    10   ar
    37    20    16   ar
    38    30    21   ar
    39    29    24   ar
    40     1    33    1
    41     2    34    1
    42     4    35    1
    43     8    36    1
    44    12    37    1
    45    13    38    1
    46    17    39    1
    47    19    40    1
    48    22    41    1
    49    23    42    1
    50    25    43    1
    51    26    44    1
    52    27    45    1
    53    28    46    1
    54    32    47    1
