@<TRIPOS>MOLECULE
*****
 43 50 0 0 0
SMALL
GASTEIGER

@<TRIPOS>ATOM
      1 C           6.6521    0.8638   -1.5225 C.ar    1  UNL1        0.0028
      2 C           7.4656    0.6724   -0.3851 C.ar    1  UNL1       -0.0361
      3 C           6.6101    0.2906    0.6761 C.ar    1  UNL1        0.0073
      4 C           6.6404   -0.0333    1.9846 C.ar    1  UNL1       -0.0145
      5 S           5.0055   -0.3618    2.4810 S.2     1  UNL1       -0.0939
      6 C           4.3519   -0.0628    0.9033 C.ar    1  UNL1        0.0446
      7 C           2.9422   -0.1989    0.5966 C.ar    1  UNL1        0.0095
      8 C           2.4898   -1.0821   -0.3696 C.ar    1  UNL1        0.0366
      9 N           1.1854   -1.2436   -0.7188 N.ar    1  UNL1       -0.2536
     10 C           0.2217   -0.5288   -0.0948 C.ar    1  UNL1        0.0823
     11 C           0.6095    0.3831    0.9060 C.ar    1  UNL1        0.0298
     12 C           1.9712    0.5476    1.2504 C.ar    1  UNL1       -0.0407
     13 C          -0.4283    1.1243    1.5378 C.ar    1  UNL1        0.1097
     14 N          -0.2498    2.0428    2.5045 N.ar    1  UNL1       -0.1901
     15 S          -1.7431    2.6200    2.9008 S.2     1  UNL1        0.1165
     16 N          -2.6741    1.7363    1.8667 N.ar    1  UNL1       -0.1901
     17 C          -1.8756    0.9305    1.1524 C.ar    1  UNL1        0.1089
     18 C          -2.2757   -0.0133    0.1312 C.ar    1  UNL1        0.0236
     19 C          -1.1515   -0.6955   -0.4444 C.ar    1  UNL1        0.0289
     20 C          -1.4605   -1.6066   -1.4456 C.ar    1  UNL1        0.0381
     21 N          -2.6937   -1.9000   -1.9199 N.ar    1  UNL1       -0.2543
     22 C          -3.7569   -1.2926   -1.4066 C.ar    1  UNL1        0.0723
     23 C          -4.9844   -1.7015   -1.9992 C.ar    1  UNL1       -0.0350
     24 C          -6.2711   -1.2423   -1.6639 C.ar    1  UNL1       -0.0490
     25 C          -6.1656   -0.3197   -0.6483 C.ar    1  UNL1        0.0206
     26 C          -7.2211    0.3250   -0.0659 C.ar    1  UNL1        0.0994
     27 O          -6.7529    1.1536    0.9055 O.2     1  UNL1       -0.4698
     28 C          -5.3897    1.0273    0.9315 C.ar    1  UNL1        0.1000
     29 C          -4.9597    0.1300   -0.0161 C.ar    1  UNL1        0.0297
     30 C          -3.6317   -0.3210   -0.3516 C.ar    1  UNL1        0.0210
     31 C           5.3679    0.2809    0.0804 C.ar    1  UNL1        0.0615
     32 N           5.3079    0.6234   -1.2417 N.ar    1  UNL1       -0.3598
     33 H           6.9311    1.1630   -2.5250 H       1  UNL1        0.0807
     34 H           8.5392    0.8048   -0.3552 H       1  UNL1        0.0639
     35 H           7.4672   -0.0981    2.6769 H       1  UNL1        0.0700
     36 H           3.1806   -1.7217   -0.9153 H       1  UNL1        0.0836
     37 H           2.2552    1.2619    2.0216 H       1  UNL1        0.0631
     38 H          -0.6776   -2.1779   -1.9463 H       1  UNL1        0.0836
     39 H          -4.9193   -2.4491   -2.7941 H       1  UNL1        0.0639
     40 H          -7.1771   -1.5843   -2.1419 H       1  UNL1        0.0625
     41 H          -8.2935    0.3168   -0.2004 H       1  UNL1        0.1035
     42 H          -4.9317    1.6459    1.6831 H       1  UNL1        0.1036
     43 H           4.4900    0.6910   -1.8353 H       1  UNL1        0.1654
@<TRIPOS>BOND
     1     1     2   ar
     2     2     3   ar
     3     3     4   ar
     4     4     5   ar
     5     5     6   ar
     6     6     7    1
     7     7     8   ar
     8     8     9   ar
     9     9    10   ar
    10    10    11   ar
    11    11    12   ar
    12    11    13   ar
    13    13    14   ar
    14    14    15   ar
    15    15    16   ar
    16    16    17   ar
    17    17    18   ar
    18    18    19   ar
    19    19    20   ar
    20    20    21   ar
    21    21    22   ar
    22    22    23   ar
    23    23    24   ar
    24    24    25   ar
    25    25    26   ar
    26    26    27   ar
    27    27    28   ar
    28    28    29   ar
    29    29    30   ar
    30     6    31   ar
    31    31    32   ar
    32    32     1   ar
    33    31     3   ar
    34    12     7   ar
    35    17    13   ar
    36    30    18   ar
    37    19    10   ar
    38    30    22   ar
    39    29    25   ar
    40     1    33    1
    41     2    34    1
    42     4    35    1
    43     8    36    1
    44    12    37    1
    45    20    38    1
    46    23    39    1
    47    24    40    1
    48    26    41    1
    49    28    42    1
    50    32    43    1
