@<TRIPOS>MOLECULE
*****
 45 51 0 0 0
SMALL
GASTEIGER

@<TRIPOS>ATOM
      1 SI         -1.6347    3.5100    1.3717 Si      1  UNL1        0.0000
      2 C          -0.2656    2.4758    0.6656 C.2     1  UNL1        0.0000
      3 C          -0.7025    1.2626    0.2610 C.ar    1  UNL1        0.0000
      4 C           0.1800    0.1863   -0.2274 C.ar    1  UNL1        0.0000
      5 C           1.5568    0.3892   -0.4233 C.ar    1  UNL1        0.0000
      6 C           2.3504   -0.6658   -0.8430 C.ar    1  UNL1        0.0000
      7 N           1.8515   -1.8921   -1.0776 N.ar    1  UNL1        0.0000
      8 C           0.5176   -2.0588   -0.8957 C.ar    1  UNL1        0.0000
      9 C          -0.3902   -1.0784   -0.4743 C.ar    1  UNL1        0.0000
     10 C          -1.8669   -1.3243   -0.3396 C.ar    1  UNL1        0.0000
     11 C          -2.4038   -2.6083   -0.6260 C.ar    1  UNL1        0.0000
     12 C          -3.7716   -2.8706   -0.6301 C.ar    1  UNL1        0.0000
     13 C          -4.6477   -1.8372   -0.3694 C.ar    1  UNL1        0.0000
     14 C          -6.1097   -2.0119   -0.4280 C.2     1  UNL1        0.0000
     15 C          -6.8025   -0.8864   -0.1992 C.2     1  UNL1        0.0000
     16 SI         -5.6921    0.5672    0.1391 Si      1  UNL1        0.0000
     17 C          -4.1612   -0.5372   -0.0472 C.ar    1  UNL1        0.0000
     18 C          -2.7732   -0.2704    0.0252 C.ar    1  UNL1        0.0000
     19 C          -2.1597    1.0322    0.4315 C.ar    1  UNL1        0.0000
     20 C          -2.7739    2.0658    1.0492 C.2     1  UNL1        0.0000
     21 C           3.7911   -0.5127   -1.0379 C.ar    1  UNL1        0.0000
     22 S           4.5026   -1.0003   -2.5464 S.2     1  UNL1        0.0000
     23 C           6.0875   -0.5070   -2.0780 C.ar    1  UNL1        0.0000
     24 C           6.0482    0.0006   -0.8169 C.ar    1  UNL1        0.0000
     25 SI          7.2997    0.7174    0.3915 Si      1  UNL1        0.0000
     26 C           5.8699    0.9384    1.6436 C.2     1  UNL1        0.0000
     27 C           4.6942    0.5112    1.1325 C.2     1  UNL1        0.0000
     28 C           4.7626    0.0024   -0.2082 C.ar    1  UNL1        0.0000
     29 H          -1.4591    3.7803    2.8185 H       1  UNL1        0.0000
     30 H          -1.9603    4.6858    0.5300 H       1  UNL1        0.0000
     31 H           0.7397    2.8616    0.6713 H       1  UNL1        0.0000
     32 H           2.0160    1.3570   -0.2621 H       1  UNL1        0.0000
     33 H           0.2107   -3.0728   -1.1277 H       1  UNL1        0.0000
     34 H          -1.7656   -3.4511   -0.8730 H       1  UNL1        0.0000
     35 H          -4.1326   -3.8667   -0.8693 H       1  UNL1        0.0000
     36 H          -6.5582   -2.9722   -0.6463 H       1  UNL1        0.0000
     37 H          -7.8770   -0.7878   -0.1983 H       1  UNL1        0.0000
     38 H          -5.7928    1.6030   -0.9195 H       1  UNL1        0.0000
     39 H          -5.8836    1.0752    1.5221 H       1  UNL1        0.0000
     40 H          -3.7850    2.1681    1.3886 H       1  UNL1        0.0000
     41 H           6.9237   -0.6289   -2.7528 H       1  UNL1        0.0000
     42 H           8.2971   -0.2609    0.8913 H       1  UNL1        0.0000
     43 H           7.8490    2.0344   -0.0167 H       1  UNL1        0.0000
     44 H           6.0529    1.3449    2.6252 H       1  UNL1        0.0000
     45 H           3.7681    0.5329    1.6956 H       1  UNL1        0.0000
@<TRIPOS>BOND
     1     1     2    1
     2     2     3    2
     3     3     4   ar
     4     4     5   ar
     5     5     6   ar
     6     6     7   ar
     7     7     8   ar
     8     8     9   ar
     9     9    10   ar
    10    10    11   ar
    11    11    12   ar
    12    12    13   ar
    13    13    14    1
    14    14    15    2
    15    15    16    1
    16    16    17    1
    17    17    18   ar
    18    18    19   ar
    19    19    20    2
    20     6    21    1
    21    21    22   ar
    22    22    23   ar
    23    23    24   ar
    24    24    25    1
    25    25    26    1
    26    26    27    2
    27    27    28    1
    28    20     1    1
    29    28    21   ar
    30    19     3   ar
    31    28    24   ar
    32     9     4   ar
    33    18    10   ar
    34    17    13   ar
    35     1    29    1
    36     1    30    1
    37     2    31    1
    38     5    32    1
    39     8    33    1
    40    11    34    1
    41    12    35    1
    42    14    36    1
    43    15    37    1
    44    16    38    1
    45    16    39    1
    46    20    40    1
    47    23    41    1
    48    25    42    1
    49    25    43    1
    50    26    44    1
    51    27    45    1
