@<TRIPOS>MOLECULE
*****
 40 46 0 0 0
SMALL
GASTEIGER

@<TRIPOS>ATOM
      1 C           6.2534   -1.5804   -1.6686 C.ar    1  UNL1        0.0028
      2 C           7.1616   -0.6072   -1.1994 C.ar    1  UNL1       -0.0361
      3 C           6.4058    0.3556   -0.4886 C.ar    1  UNL1        0.0073
      4 C           6.5512    1.5083    0.1958 C.ar    1  UNL1       -0.0145
      5 S           4.9713    2.0028    0.7311 S.2     1  UNL1       -0.0939
      6 C           4.1833    0.6300    0.0235 C.ar    1  UNL1        0.0446
      7 C           2.7549    0.3985    0.1282 C.ar    1  UNL1        0.0094
      8 C           2.2537   -0.7707    0.7023 C.ar    1  UNL1        0.0367
      9 N           0.9382   -1.0718    0.8095 N.ar    1  UNL1       -0.2505
     10 C           0.0746   -0.1432    0.3354 C.ar    1  UNL1        0.1167
     11 C          -1.2919   -0.3987    0.4258 C.ar    1  UNL1        0.1802
     12 O          -1.9098   -1.5104    0.9509 O.2     1  UNL1       -0.4510
     13 C          -3.2595   -1.3118    0.8209 C.ar    1  UNL1        0.1385
     14 C          -4.2860   -2.1959    1.2260 C.ar    1  UNL1       -0.0180
     15 C          -5.6413   -1.8427    1.0200 C.ar    1  UNL1       -0.0491
     16 C          -5.7883   -0.5989    0.4103 C.ar    1  UNL1        0.0003
     17 C          -6.9813    0.0032    0.0876 C.ar    1  UNL1        0.0094
     18 N          -6.6899    1.2269   -0.5008 N.ar    1  UNL1       -0.3659
     19 C          -5.3233    1.4205   -0.5615 C.ar    1  UNL1        0.0102
     20 C          -4.7925    0.2997   -0.0025 C.ar    1  UNL1        0.0122
     21 C          -3.4494   -0.0841    0.2182 C.ar    1  UNL1        0.0554
     22 C          -2.2294    0.5233   -0.0472 C.ar    1  UNL1        0.1194
     23 N          -1.8924    1.7093   -0.6176 N.ar    1  UNL1       -0.2504
     24 C          -0.5593    1.9349   -0.6940 C.ar    1  UNL1        0.0377
     25 C           0.4508    1.0726   -0.2493 C.ar    1  UNL1        0.0227
     26 C           1.8280    1.3340   -0.3490 C.ar    1  UNL1       -0.0413
     27 C           5.1198   -0.1282   -0.5896 C.ar    1  UNL1        0.0615
     28 N           4.9433   -1.2877   -1.2921 N.ar    1  UNL1       -0.3598
     29 H           6.4416   -2.4714   -2.2543 H       1  UNL1        0.0807
     30 H           8.2303   -0.6167   -1.3690 H       1  UNL1        0.0639
     31 H           7.4335    2.0910    0.4175 H       1  UNL1        0.0700
     32 H           2.9204   -1.5261    1.1132 H       1  UNL1        0.0836
     33 H          -4.0287   -3.1415    1.6936 H       1  UNL1        0.0655
     34 H          -6.4607   -2.4855    1.3131 H       1  UNL1        0.0625
     35 H          -8.0099   -0.3067    0.2133 H       1  UNL1        0.0813
     36 H          -7.3816    1.8841   -0.8371 H       1  UNL1        0.1648
     37 H          -4.8902    2.3160   -0.9863 H       1  UNL1        0.0813
     38 H          -0.3031    2.8888   -1.1524 H       1  UNL1        0.0836
     39 H           2.1747    2.2596   -0.8039 H       1  UNL1        0.0631
     40 H           4.0783   -1.7796   -1.4832 H       1  UNL1        0.1654
@<TRIPOS>BOND
     1     1     2   ar
     2     2     3   ar
     3     3     4   ar
     4     4     5   ar
     5     5     6   ar
     6     6     7    1
     7     7     8   ar
     8     8     9   ar
     9     9    10   ar
    10    10    11   ar
    11    11    12   ar
    12    12    13   ar
    13    13    14   ar
    14    14    15   ar
    15    15    16   ar
    16    16    17   ar
    17    17    18   ar
    18    18    19   ar
    19    19    20   ar
    20    20    21   ar
    21    21    22   ar
    22    22    23   ar
    23    23    24   ar
    24    24    25   ar
    25    25    26   ar
    26     6    27   ar
    27    27    28   ar
    28    28     1   ar
    29    27     3   ar
    30    26     7   ar
    31    25    10   ar
    32    22    11   ar
    33    21    13   ar
    34    20    16   ar
    35     1    29    1
    36     2    30    1
    37     4    31    1
    38     8    32    1
    39    14    33    1
    40    15    34    1
    41    17    35    1
    42    18    36    1
    43    19    37    1
    44    24    38    1
    45    26    39    1
    46    28    40    1
