@<TRIPOS>MOLECULE
*****
 39 45 0 0 0
SMALL
GASTEIGER

@<TRIPOS>ATOM
      1 C           6.9284    0.2750    1.3685 C.ar    1  UNL1       -0.0231
      2 C           7.4364    0.3049    0.0690 C.ar    1  UNL1       -0.0465
      3 C           6.4169    0.2698   -0.9091 C.ar    1  UNL1       -0.0032
      4 C           6.4758    0.2816   -2.2554 C.ar    1  UNL1       -0.0155
      5 S           4.8730    0.2198   -2.8447 S.2     1  UNL1       -0.0949
      6 C           4.1485    0.1789   -1.2555 C.ar    1  UNL1        0.0351
      7 C           2.6760    0.1172   -1.0904 C.ar    1  UNL1        0.0085
      8 C           1.8088    0.0894   -2.1911 C.ar    1  UNL1        0.0365
      9 N           0.4514    0.0332   -2.1413 N.ar    1  UNL1       -0.2532
     10 C          -0.1156    0.0013   -0.9167 C.ar    1  UNL1        0.0853
     11 C          -1.5334   -0.0574   -0.8615 C.ar    1  UNL1        0.0464
     12 S          -2.6194   -0.0926   -2.2089 S.2     1  UNL1       -0.0861
     13 C          -4.0168   -0.1570   -1.2200 C.ar    1  UNL1        0.0212
     14 C          -5.3679   -0.2094   -1.6689 C.ar    1  UNL1       -0.0468
     15 C          -6.4461   -0.2600   -0.7751 C.ar    1  UNL1       -0.0524
     16 C          -6.0434   -0.2527    0.5527 C.ar    1  UNL1       -0.0102
     17 C          -6.9762   -0.2982    1.5647 C.ar    1  UNL1       -0.0166
     18 S          -6.2373   -0.2787    3.1184 S.2     1  UNL1       -0.1039
     19 C          -4.6522   -0.2088    2.4406 C.ar    1  UNL1       -0.0160
     20 C          -4.7233   -0.2021    1.0766 C.ar    1  UNL1       -0.0021
     21 C          -3.6331   -0.1506    0.1133 C.ar    1  UNL1        0.0052
     22 C          -2.2232   -0.0944    0.3644 C.ar    1  UNL1       -0.0004
     23 C          -1.4298   -0.0700    1.5427 C.ar    1  UNL1       -0.0522
     24 C          -0.0316   -0.0122    1.4904 C.ar    1  UNL1       -0.0519
     25 C           0.6291    0.0236    0.2657 C.ar    1  UNL1        0.0021
     26 C           2.0331    0.0821    0.1544 C.ar    1  UNL1       -0.0428
     27 C           5.1539    0.2137   -0.3077 C.ar    1  UNL1        0.0341
     28 S           5.1851    0.2023    1.5142 S.2     1  UNL1       -0.0955
     29 H           7.5009    0.2921    2.2862 H       1  UNL1        0.0694
     30 H           8.4988    0.3500   -0.1380 H       1  UNL1        0.0629
     31 H           7.3293    0.3213   -2.9176 H       1  UNL1        0.0700
     32 H           2.1754    0.1116   -3.2140 H       1  UNL1        0.0836
     33 H          -5.5706   -0.2102   -2.7391 H       1  UNL1        0.0629
     34 H          -7.4736   -0.2998   -1.1147 H       1  UNL1        0.0624
     35 H          -8.0543   -0.3420    1.4901 H       1  UNL1        0.0699
     36 H          -3.8165   -0.1791    3.1164 H       1  UNL1        0.0700
     37 H          -1.8826   -0.0955    2.5262 H       1  UNL1        0.0624
     38 H           0.5295    0.0043    2.4228 H       1  UNL1        0.0624
     39 H           2.5963    0.0987    1.0774 H       1  UNL1        0.0631
@<TRIPOS>BOND
     1     1     2   ar
     2     2     3   ar
     3     3     4   ar
     4     4     5   ar
     5     5     6   ar
     6     6     7    1
     7     7     8   ar
     8     8     9   ar
     9     9    10   ar
    10    10    11   ar
    11    11    12   ar
    12    12    13   ar
    13    13    14   ar
    14    14    15   ar
    15    15    16   ar
    16    16    17   ar
    17    17    18   ar
    18    18    19   ar
    19    19    20   ar
    20    20    21   ar
    21    21    22   ar
    22    22    23   ar
    23    23    24   ar
    24    24    25   ar
    25    25    26   ar
    26     6    27   ar
    27    27    28   ar
    28    28     1   ar
    29    27     3   ar
    30    26     7   ar
    31    25    10   ar
    32    22    11   ar
    33    21    13   ar
    34    20    16   ar
    35     1    29    1
    36     2    30    1
    37     4    31    1
    38     8    32    1
    39    14    33    1
    40    15    34    1
    41    17    35    1
    42    19    36    1
    43    23    37    1
    44    24    38    1
    45    26    39    1
