@<TRIPOS>MOLECULE
*****
 39 45 0 0 0
SMALL
GASTEIGER

@<TRIPOS>ATOM
      1 C           6.8213   -1.1239    0.9013 C.ar    1  UNL1       -0.0231
      2 C           7.3585    0.0870    0.4623 C.ar    1  UNL1       -0.0465
      3 C           6.3622    1.0002    0.0490 C.ar    1  UNL1       -0.0032
      4 C           6.4513    2.2553   -0.4335 C.ar    1  UNL1       -0.0155
      5 S           4.8631    2.8064   -0.7408 S.2     1  UNL1       -0.0949
      6 C           4.1038    1.3254   -0.2099 C.ar    1  UNL1        0.0351
      7 C           2.6297    1.1728   -0.2371 C.ar    1  UNL1        0.0085
      8 C           1.7868    2.1939   -0.6833 C.ar    1  UNL1        0.0365
      9 N           0.4281    2.1439   -0.7436 N.ar    1  UNL1       -0.2543
     10 C          -0.1790    1.0228   -0.3436 C.ar    1  UNL1        0.0718
     11 C          -1.5688    0.9591   -0.4004 C.ar    1  UNL1       -0.0244
     12 C          -2.2439   -0.2019    0.0110 C.ar    1  UNL1        0.0306
     13 C          -1.4872   -1.2786    0.4738 C.ar    1  UNL1        0.1370
     14 C          -0.0976   -1.2622    0.5489 C.ar    1  UNL1       -0.0095
     15 C           0.5522   -0.0851    0.1297 C.ar    1  UNL1        0.0045
     16 C           1.9564    0.0176    0.1722 C.ar    1  UNL1       -0.0427
     17 O          -2.2826   -2.3342    0.8372 O.2     1  UNL1       -0.4548
     18 C          -3.5784   -1.9534    0.6132 C.ar    1  UNL1        0.1369
     19 C          -4.7395   -2.7270    0.8456 C.ar    1  UNL1       -0.0180
     20 C          -6.0161   -2.1861    0.5606 C.ar    1  UNL1       -0.0475
     21 C          -5.9469   -0.8883    0.0604 C.ar    1  UNL1        0.0207
     22 C          -7.0072   -0.0967   -0.3094 C.ar    1  UNL1        0.0994
     23 O          -6.5536    1.1231   -0.7567 O.2     1  UNL1       -0.4698
     24 C          -5.1807    1.1153   -0.6731 C.ar    1  UNL1        0.1001
     25 C          -4.8134   -0.0956   -0.1810 C.ar    1  UNL1        0.0312
     26 C          -3.5530   -0.6661    0.1145 C.ar    1  UNL1        0.0387
     27 C           5.0868    0.4408    0.1915 C.ar    1  UNL1        0.0341
     28 S           5.0762   -1.2576    0.8509 S.2     1  UNL1       -0.0955
     29 H           7.3722   -1.9803    1.2664 H       1  UNL1        0.0694
     30 H           8.4247    0.2786    0.4504 H       1  UNL1        0.0629
     31 H           7.3189    2.8719   -0.6222 H       1  UNL1        0.0700
     32 H           2.1725    3.1486   -1.0315 H       1  UNL1        0.0836
     33 H          -2.1193    1.8199   -0.7671 H       1  UNL1        0.0646
     34 H           0.4437   -2.1265    0.9165 H       1  UNL1        0.0661
     35 H           2.4992   -0.8435    0.5386 H       1  UNL1        0.0631
     36 H          -4.6447   -3.7336    1.2423 H       1  UNL1        0.0655
     37 H          -6.9319   -2.7398    0.7220 H       1  UNL1        0.0626
     38 H          -8.0810   -0.2200   -0.3245 H       1  UNL1        0.1035
     39 H          -4.6825    2.0179   -0.9945 H       1  UNL1        0.1036
@<TRIPOS>BOND
     1     1     2   ar
     2     2     3   ar
     3     3     4   ar
     4     4     5   ar
     5     5     6   ar
     6     6     7    1
     7     7     8   ar
     8     8     9   ar
     9     9    10   ar
    10    10    11   ar
    11    11    12   ar
    12    12    13   ar
    13    13    14   ar
    14    14    15   ar
    15    15    16   ar
    16    13    17   ar
    17    17    18   ar
    18    18    19   ar
    19    19    20   ar
    20    20    21   ar
    21    21    22   ar
    22    22    23   ar
    23    23    24   ar
    24    24    25   ar
    25    25    26   ar
    26     6    27   ar
    27    27    28   ar
    28    28     1   ar
    29    27     3   ar
    30    16     7   ar
    31    26    18   ar
    32    15    10   ar
    33    25    21   ar
    34    26    12   ar
    35     1    29    1
    36     2    30    1
    37     4    31    1
    38     8    32    1
    39    11    33    1
    40    14    34    1
    41    16    35    1
    42    19    36    1
    43    20    37    1
    44    22    38    1
    45    24    39    1
