@<TRIPOS>MOLECULE
*****
 38 43 0 0 0
SMALL
GASTEIGER

@<TRIPOS>ATOM
      1 C           6.2050   -1.5514    1.4632 C.ar    1  UNL1       -0.0231
      2 C           6.9794   -0.6562    0.7240 C.ar    1  UNL1       -0.0465
      3 C           6.1919    0.2276   -0.0481 C.ar    1  UNL1       -0.0032
      4 C           6.5369    1.2252   -0.8859 C.ar    1  UNL1       -0.0155
      5 S           5.0957    1.9054   -1.5030 S.2     1  UNL1       -0.0949
      6 C           4.0485    0.8257   -0.6146 C.ar    1  UNL1        0.0351
      7 C           2.5745    0.9220   -0.7366 C.ar    1  UNL1        0.0085
      8 C           1.9587    1.8702   -1.5587 C.ar    1  UNL1        0.0365
      9 N           0.6187    2.0323   -1.7329 N.ar    1  UNL1       -0.2543
     10 C          -0.2041    1.2167   -1.0628 C.ar    1  UNL1        0.0716
     11 C          -1.5774    1.3519   -1.2151 C.ar    1  UNL1       -0.0280
     12 C          -2.4900    0.5248   -0.5377 C.ar    1  UNL1       -0.0152
     13 C          -3.8759    0.6688   -0.6978 C.ar    1  UNL1       -0.0448
     14 C          -4.7727   -0.1685   -0.0112 C.ar    1  UNL1        0.0010
     15 C          -6.1606   -0.0407   -0.1576 C.ar    1  UNL1       -0.0511
     16 C          -7.0103   -0.8899    0.5403 C.ar    1  UNL1       -0.0430
     17 C          -6.4405   -1.8414    1.3640 C.ar    1  UNL1        0.0283
     18 N          -5.1083   -1.9943    1.5302 N.ar    1  UNL1       -0.2550
     19 C          -4.2885   -1.1706    0.8530 C.ar    1  UNL1        0.0716
     20 C          -2.9148   -1.3023    1.0024 C.ar    1  UNL1       -0.0280
     21 C          -2.0034   -0.4738    0.3237 C.ar    1  UNL1       -0.0152
     22 C          -0.6169   -0.6163    0.4826 C.ar    1  UNL1       -0.0448
     23 C           0.2828    0.2204   -0.2034 C.ar    1  UNL1        0.0016
     24 C           1.6789    0.0917   -0.0560 C.ar    1  UNL1       -0.0428
     25 C           4.8288   -0.0331    0.1361 C.ar    1  UNL1        0.0341
     26 S           4.4696   -1.3993    1.2866 S.2     1  UNL1       -0.0955
     27 H           6.5681   -2.3232    2.1285 H       1  UNL1        0.0694
     28 H           8.0622   -0.6607    0.7574 H       1  UNL1        0.0629
     29 H           7.5126    1.5926   -1.1713 H       1  UNL1        0.0700
     30 H           2.5322    2.5816   -2.1471 H       1  UNL1        0.0836
     31 H          -1.9397    2.1292   -1.8851 H       1  UNL1        0.0645
     32 H          -4.2628    1.4391   -1.3625 H       1  UNL1        0.0630
     33 H          -6.5831    0.7169   -0.8125 H       1  UNL1        0.0625
     34 H          -8.0870   -0.8111    0.4440 H       1  UNL1        0.0633
     35 H          -7.0578   -2.5311    1.9328 H       1  UNL1        0.0830
     36 H          -2.5503   -2.0790    1.6719 H       1  UNL1        0.0645
     37 H          -0.2310   -1.3873    1.1478 H       1  UNL1        0.0630
     38 H           2.0307   -0.6831    0.6116 H       1  UNL1        0.0631
@<TRIPOS>BOND
     1     1     2   ar
     2     2     3   ar
     3     3     4   ar
     4     4     5   ar
     5     5     6   ar
     6     6     7    1
     7     7     8   ar
     8     8     9   ar
     9     9    10   ar
    10    10    11   ar
    11    11    12   ar
    12    12    13   ar
    13    13    14   ar
    14    14    15   ar
    15    15    16   ar
    16    16    17   ar
    17    17    18   ar
    18    18    19   ar
    19    19    20   ar
    20    20    21   ar
    21    21    22   ar
    22    22    23   ar
    23    23    24   ar
    24     6    25   ar
    25    25    26   ar
    26    26     1   ar
    27    25     3   ar
    28    24     7   ar
    29    23    10   ar
    30    21    12   ar
    31    19    14   ar
    32     1    27    1
    33     2    28    1
    34     4    29    1
    35     8    30    1
    36    11    31    1
    37    13    32    1
    38    15    33    1
    39    16    34    1
    40    17    35    1
    41    20    36    1
    42    22    37    1
    43    24    38    1
