@<TRIPOS>MOLECULE
*****
 42 48 0 0 0
SMALL
GASTEIGER

@<TRIPOS>ATOM
      1 C           7.6256    1.2563   -1.4775 C.ar    1  UNL1        0.0932
      2 C           8.4318    0.9727   -0.3690 C.ar    1  UNL1       -0.0156
      3 C           7.5341    0.5903    0.6386 C.ar    1  UNL1        0.0278
      4 C           7.5409    0.1879    1.9257 C.ar    1  UNL1       -0.0128
      5 S           5.8905   -0.0855    2.3946 S.2     1  UNL1       -0.0903
      6 C           5.2453    0.3544    0.8359 C.ar    1  UNL1        0.0871
      7 C           3.8544    0.3657    0.4780 C.ar    1  UNL1        0.1189
      8 N           3.4253    0.8072   -0.6855 N.ar    1  UNL1       -0.2460
      9 C           2.0499    0.7024   -0.7590 C.ar    1  UNL1        0.0438
     10 C           1.4128    0.1732    0.3494 C.ar    1  UNL1        0.0495
     11 S           2.6086   -0.1921    1.5267 S.2     1  UNL1       -0.0660
     12 C           0.0060   -0.0418    0.5437 C.ar    1  UNL1        0.0708
     13 S          -1.2223    0.6637   -0.4712 S.2     1  UNL1       -0.0833
     14 C          -2.5391   -0.0656    0.3965 C.ar    1  UNL1        0.0314
     15 C          -3.9113    0.1834    0.0223 C.ar    1  UNL1       -0.0015
     16 C          -4.8469    0.8650    0.8396 C.ar    1  UNL1       -0.0529
     17 C          -6.2173    1.1023    0.4668 C.ar    1  UNL1       -0.0605
     18 C          -6.7955    0.6776   -0.7522 C.ar    1  UNL1       -0.0526
     19 C          -5.8626    0.0013   -1.5278 C.ar    1  UNL1        0.0000
     20 C          -6.0940   -0.5552   -2.7587 C.ar    1  UNL1        0.0094
     21 N          -4.9117   -1.1397   -3.1611 N.ar    1  UNL1       -0.3659
     22 C          -3.9368   -0.9610   -2.2004 C.ar    1  UNL1        0.0100
     23 C          -4.4994   -0.2397   -1.1746 C.ar    1  UNL1        0.0076
     24 C          -2.0034   -0.7863    1.4061 C.ar    1  UNL1        0.0356
     25 C          -2.4067   -1.6069    2.4722 C.ar    1  UNL1       -0.0150
     26 C          -1.2162   -2.0119    3.0854 C.ar    1  UNL1        0.0932
     27 O          -0.0739   -1.5123    2.4896 O.2     1  UNL1       -0.4617
     28 C          -0.6303   -0.7781    1.4832 C.ar    1  UNL1        0.1506
     29 C           6.2950    0.6809    0.0483 C.ar    1  UNL1        0.1515
     30 O           6.2729    1.0832   -1.2547 O.2     1  UNL1       -0.4617
     31 H           7.8623    1.5865   -2.4804 H       1  UNL1        0.1030
     32 H           9.5091    1.0428   -0.3316 H       1  UNL1        0.0655
     33 H           8.3592    0.0341    2.6147 H       1  UNL1        0.0701
     34 H           1.5600    1.0319   -1.6678 H       1  UNL1        0.0841
     35 H          -4.5164    1.2443    1.8073 H       1  UNL1        0.0624
     36 H          -6.8477    1.6452    1.1721 H       1  UNL1        0.0618
     37 H          -7.8261    0.8598   -1.0203 H       1  UNL1        0.0624
     38 H          -6.9743   -0.6009   -3.3852 H       1  UNL1        0.0813
     39 H          -4.7789   -1.6356   -4.0326 H       1  UNL1        0.1648
     40 H          -2.9452   -1.3661   -2.3487 H       1  UNL1        0.0813
     41 H          -3.4069   -1.8862    2.7710 H       1  UNL1        0.0655
     42 H          -1.0211   -2.6472    3.9397 H       1  UNL1        0.1030
@<TRIPOS>BOND
     1     1     2   ar
     2     2     3   ar
     3     3     4   ar
     4     4     5   ar
     5     5     6   ar
     6     6     7    1
     7     7     8   ar
     8     8     9   ar
     9     9    10   ar
    10    10    11   ar
    11    10    12    1
    12    12    13   ar
    13    13    14   ar
    14    14    15    1
    15    15    16   ar
    16    16    17   ar
    17    17    18   ar
    18    18    19   ar
    19    19    20   ar
    20    20    21   ar
    21    21    22   ar
    22    22    23   ar
    23    14    24   ar
    24    24    25   ar
    25    25    26   ar
    26    26    27   ar
    27    27    28   ar
    28     6    29   ar
    29    29    30   ar
    30    30     1   ar
    31    29     3   ar
    32    11     7   ar
    33    28    12   ar
    34    23    15   ar
    35    28    24   ar
    36    23    19   ar
    37     1    31    1
    38     2    32    1
    39     4    33    1
    40     9    34    1
    41    16    35    1
    42    17    36    1
    43    18    37    1
    44    20    38    1
    45    21    39    1
    46    22    40    1
    47    25    41    1
    48    26    42    1
