@<TRIPOS>MOLECULE
*****
 46 52 0 0 0
SMALL
GASTEIGER

@<TRIPOS>ATOM
      1 C           5.3355   -2.9230    1.5335 C.ar    1  UNL1        0.0028
      2 C           6.5430   -2.1950    1.5788 C.ar    1  UNL1       -0.0361
      3 C           6.2444   -0.8736    1.1688 C.ar    1  UNL1        0.0073
      4 C           6.8420    0.3161    0.9635 C.ar    1  UNL1       -0.0145
      5 S           5.6217    1.4241    0.4180 S.2     1  UNL1       -0.0934
      6 C           4.3434    0.2429    0.4962 C.ar    1  UNL1        0.0504
      7 C           2.9818    0.5353    0.1565 C.ar    1  UNL1        0.0377
      8 S           1.6193   -0.1853    0.9829 S.2     1  UNL1       -0.0849
      9 C           0.4474    0.6544    0.0357 C.ar    1  UNL1        0.0444
     10 C          -0.9889    0.4969    0.2222 C.ar    1  UNL1       -0.0016
     11 C          -1.5738    1.1582    1.3104 C.ar    1  UNL1       -0.0523
     12 C          -2.9419    1.0729    1.5357 C.ar    1  UNL1       -0.0523
     13 C          -3.7581    0.3231    0.6784 C.ar    1  UNL1       -0.0021
     14 C          -5.1930    0.2963    0.9635 C.ar    1  UNL1        0.0394
     15 C          -6.2249    1.0086    0.3827 C.ar    1  UNL1        0.0425
     16 N          -7.4890    0.7488    0.8781 N.ar    1  UNL1       -0.2551
     17 C          -7.3994   -0.1516    1.8323 C.ar    1  UNL1        0.0652
     18 S          -5.8242   -0.7322    2.1845 S.2     1  UNL1       -0.0754
     19 C          -3.1939   -0.3620   -0.4346 C.ar    1  UNL1       -0.0090
     20 C          -3.9730   -1.1384   -1.3289 C.ar    1  UNL1       -0.0534
     21 C          -3.4092   -1.8087   -2.4141 C.ar    1  UNL1       -0.0611
     22 C          -2.0455   -1.7275   -2.6359 C.ar    1  UNL1       -0.0611
     23 C          -1.2501   -0.9753   -1.7722 C.ar    1  UNL1       -0.0534
     24 C          -1.7915   -0.2762   -0.6640 C.ar    1  UNL1       -0.0090
     25 C           1.0960    1.4435   -0.8452 C.ar    1  UNL1        0.0621
     26 N           0.5461    2.2770   -1.7774 N.ar    1  UNL1       -0.3597
     27 C           1.6864    2.8011   -2.3793 C.ar    1  UNL1        0.0028
     28 C           2.8643    2.2799   -1.8024 C.ar    1  UNL1       -0.0355
     29 C           2.4714    1.3767   -0.7764 C.ar    1  UNL1        0.0156
     30 C           4.8900   -0.9229    0.9190 C.ar    1  UNL1        0.0620
     31 N           4.2723   -2.1278    1.1120 N.ar    1  UNL1       -0.3597
     32 H           5.1482   -3.9620    1.7725 H       1  UNL1        0.0807
     33 H           7.5039   -2.5959    1.8728 H       1  UNL1        0.0639
     34 H           7.8724    0.6179    1.0815 H       1  UNL1        0.0700
     35 H          -0.9612    1.7505    1.9882 H       1  UNL1        0.0624
     36 H          -3.3718    1.5997    2.3859 H       1  UNL1        0.0624
     37 H          -6.1098    1.7334   -0.4145 H       1  UNL1        0.0841
     38 H          -8.2669   -0.5112    2.3702 H       1  UNL1        0.0907
     39 H          -5.0476   -1.2393   -1.1856 H       1  UNL1        0.0624
     40 H          -4.0384   -2.3964   -3.0776 H       1  UNL1        0.0618
     41 H          -1.5943   -2.2511   -3.4748 H       1  UNL1        0.0618
     42 H          -0.1810   -0.9481   -1.9771 H       1  UNL1        0.0624
     43 H          -0.4373    2.4406   -1.9603 H       1  UNL1        0.1654
     44 H           1.5730    3.5146   -3.1856 H       1  UNL1        0.0807
     45 H           3.8711    2.5354   -2.1060 H       1  UNL1        0.0639
     46 H           3.2911   -2.3447    0.9799 H       1  UNL1        0.1654
@<TRIPOS>BOND
     1     1     2   ar
     2     2     3   ar
     3     3     4   ar
     4     4     5   ar
     5     5     6   ar
     6     6     7    1
     7     7     8   ar
     8     8     9   ar
     9     9    10    1
    10    10    11   ar
    11    11    12   ar
    12    12    13   ar
    13    13    14    1
    14    14    15   ar
    15    15    16   ar
    16    16    17   ar
    17    17    18   ar
    18    13    19   ar
    19    19    20   ar
    20    20    21   ar
    21    21    22   ar
    22    22    23   ar
    23    23    24   ar
    24     9    25   ar
    25    25    26   ar
    26    26    27   ar
    27    27    28   ar
    28    28    29   ar
    29     6    30   ar
    30    30    31   ar
    31    31     1   ar
    32    30     3   ar
    33    29     7   ar
    34    24    10   ar
    35    29    25   ar
    36    18    14   ar
    37    24    19   ar
    38     1    32    1
    39     2    33    1
    40     4    34    1
    41    11    35    1
    42    12    36    1
    43    15    37    1
    44    17    38    1
    45    20    39    1
    46    21    40    1
    47    22    41    1
    48    23    42    1
    49    26    43    1
    50    27    44    1
    51    28    45    1
    52    31    46    1
