@<TRIPOS>MOLECULE
*****
 42 48 0 0 0
SMALL
GASTEIGER

@<TRIPOS>ATOM
      1 C           6.6365   -1.8324    1.2848 C.ar    1  UNL1        0.0932
      2 C           7.5801   -1.1892    0.4746 C.ar    1  UNL1       -0.0156
      3 C           6.8237   -0.3749   -0.3813 C.ar    1  UNL1        0.0278
      4 C           6.9946    0.4978   -1.3952 C.ar    1  UNL1       -0.0128
      5 S           5.4185    1.0433   -1.8869 S.2     1  UNL1       -0.0918
      6 C           4.5838    0.0818   -0.7002 C.ar    1  UNL1        0.0694
      7 C           3.1610    0.0673   -0.5397 C.ar    1  UNL1        0.0410
      8 S           2.3872   -0.1635    1.0088 S.2     1  UNL1       -0.0802
      9 C           0.7841   -0.0351    0.3740 C.ar    1  UNL1        0.0978
     10 C          -0.4162   -0.1410    1.1434 C.ar    1  UNL1        0.1458
     11 C          -0.5770   -0.2672    2.5145 C.ar    1  UNL1       -0.0146
     12 C          -1.9688   -0.3236    2.7746 C.ar    1  UNL1       -0.0152
     13 C          -2.6009   -0.2226    1.5536 C.ar    1  UNL1        0.1363
     14 O          -1.6628   -0.1306    0.5724 O.2     1  UNL1       -0.4542
     15 C          -3.9905   -0.2434    1.1416 C.ar    1  UNL1        0.0255
     16 C          -4.9993   -0.8956    1.9004 C.ar    1  UNL1       -0.0505
     17 C          -6.3837   -0.9430    1.5367 C.ar    1  UNL1       -0.0605
     18 C          -6.9112   -0.3389    0.3789 C.ar    1  UNL1       -0.0535
     19 C          -5.9264    0.3112   -0.3646 C.ar    1  UNL1       -0.0102
     20 C          -6.2208    0.9786   -1.5279 C.ar    1  UNL1       -0.0166
     21 S          -4.8165    1.6929   -2.2070 S.2     1  UNL1       -0.1039
     22 C          -3.8154    1.1065   -0.9368 C.ar    1  UNL1       -0.0159
     23 C          -4.5213    0.3668   -0.0140 C.ar    1  UNL1       -0.0002
     24 C           0.8883    0.1826   -0.9528 C.ar    1  UNL1        0.1531
     25 O          -0.1291    0.3541   -1.8450 O.2     1  UNL1       -0.4616
     26 C           0.5968    0.5253   -3.0062 C.ar    1  UNL1        0.0932
     27 C           1.9833    0.4647   -2.8286 C.ar    1  UNL1       -0.0150
     28 C           2.1707    0.2406   -1.4500 C.ar    1  UNL1        0.0363
     29 C           5.5208   -0.6005   -0.0043 C.ar    1  UNL1        0.1500
     30 O           5.3255   -1.4899    1.0111 O.2     1  UNL1       -0.4618
     31 H           6.7411   -2.5515    2.0870 H       1  UNL1        0.1030
     32 H           8.6518   -1.3175    0.5219 H       1  UNL1        0.0655
     33 H           7.8930    0.8504   -1.8814 H       1  UNL1        0.0701
     34 H           0.2180   -0.3107    3.2461 H       1  UNL1        0.0656
     35 H          -2.4497   -0.4191    3.7376 H       1  UNL1        0.0656
     36 H          -4.7129   -1.4107    2.8182 H       1  UNL1        0.0625
     37 H          -7.0664   -1.4808    2.1955 H       1  UNL1        0.0618
     38 H          -7.9609   -0.3847    0.1208 H       1  UNL1        0.0624
     39 H          -7.1761    1.0952   -2.0206 H       1  UNL1        0.0699
     40 H          -2.7618    1.3471   -0.9613 H       1  UNL1        0.0700
     41 H          -0.0155    0.6796   -3.8852 H       1  UNL1        0.1030
     42 H           2.7245    0.5693   -3.6076 H       1  UNL1        0.0655
@<TRIPOS>BOND
     1     1     2   ar
     2     2     3   ar
     3     3     4   ar
     4     4     5   ar
     5     5     6   ar
     6     6     7    1
     7     7     8   ar
     8     8     9   ar
     9     9    10    1
    10    10    11   ar
    11    11    12   ar
    12    12    13   ar
    13    13    14   ar
    14    13    15    1
    15    15    16   ar
    16    16    17   ar
    17    17    18   ar
    18    18    19   ar
    19    19    20   ar
    20    20    21   ar
    21    21    22   ar
    22    22    23   ar
    23     9    24   ar
    24    24    25   ar
    25    25    26   ar
    26    26    27   ar
    27    27    28   ar
    28     6    29   ar
    29    29    30   ar
    30    30     1   ar
    31    29     3   ar
    32    28     7   ar
    33    14    10   ar
    34    23    15   ar
    35    28    24   ar
    36    23    19   ar
    37     1    31    1
    38     2    32    1
    39     4    33    1
    40    11    34    1
    41    12    35    1
    42    16    36    1
    43    17    37    1
    44    18    38    1
    45    20    39    1
    46    22    40    1
    47    26    41    1
    48    27    42    1
