@<TRIPOS>MOLECULE
*****
 48 55 0 0 0
SMALL
GASTEIGER

@<TRIPOS>ATOM
      1 C           7.1120   -1.3340    1.4395 C.ar    1  UNL1        0.0028
      2 C           7.8543   -1.1749    0.2498 C.ar    1  UNL1       -0.0361
      3 C           6.9781   -0.6199   -0.7138 C.ar    1  UNL1        0.0073
      4 C           6.9518   -0.2211   -2.0010 C.ar    1  UNL1       -0.0145
      5 S           5.3419    0.3411   -2.3413 S.2     1  UNL1       -0.0934
      6 C           4.7706    0.0306   -0.7297 C.ar    1  UNL1        0.0504
      7 C           3.4440    0.3109   -0.2816 C.ar    1  UNL1        0.0377
      8 S           2.0301   -0.1794   -1.1665 S.2     1  UNL1       -0.0844
      9 C           0.9182    0.4800   -0.0056 C.ar    1  UNL1        0.0524
     10 C          -0.5042    0.4051   -0.1320 C.ar    1  UNL1        0.0523
     11 S          -1.5767    0.0229    1.1813 S.2     1  UNL1       -0.0849
     12 C          -3.0131    0.1187    0.2045 C.ar    1  UNL1        0.0298
     13 C          -4.3154   -0.1340    0.7793 C.ar    1  UNL1        0.0001
     14 C          -4.8452    0.5114    1.9265 C.ar    1  UNL1       -0.0528
     15 C          -6.1551    0.2494    2.4703 C.ar    1  UNL1       -0.0605
     16 C          -7.0714   -0.6831    1.9304 C.ar    1  UNL1       -0.0510
     17 C          -6.5263   -1.3024    0.8141 C.ar    1  UNL1        0.0205
     18 C          -7.1130   -2.2670    0.0404 C.ar    1  UNL1        0.0994
     19 O          -6.2506   -2.6378   -0.9552 O.2     1  UNL1       -0.4698
     20 C          -5.1065   -1.8997   -0.8082 C.ar    1  UNL1        0.1000
     21 C          -5.2335   -1.0519    0.2629 C.ar    1  UNL1        0.0281
     22 C          -2.6187    0.4443   -1.0469 C.ar    1  UNL1        0.0151
     23 C          -3.1470    0.7196   -2.3349 C.ar    1  UNL1       -0.0355
     24 C          -2.0551    1.0063   -3.1797 C.ar    1  UNL1        0.0028
     25 N          -0.8447    0.9348   -2.4954 N.ar    1  UNL1       -0.3597
     26 C          -1.2620    0.5971   -1.2372 C.ar    1  UNL1        0.0626
     27 C           1.6474    1.0397    0.9881 C.ar    1  UNL1        0.0626
     28 N           1.1908    1.6909    2.1008 N.ar    1  UNL1       -0.3597
     29 C           2.3835    2.0563    2.7186 C.ar    1  UNL1        0.0028
     30 C           3.5042    1.6312    1.9762 C.ar    1  UNL1       -0.0355
     31 C           3.0144    0.9491    0.8307 C.ar    1  UNL1        0.0156
     32 C           5.7968   -0.4894   -0.0171 C.ar    1  UNL1        0.0620
     33 N           5.7944   -0.9070    1.2850 N.ar    1  UNL1       -0.3597
     34 H           7.4238   -1.7296    2.3978 H       1  UNL1        0.0807
     35 H           8.8953   -1.4410    0.1225 H       1  UNL1        0.0639
     36 H           7.7249   -0.2190   -2.7553 H       1  UNL1        0.0700
     37 H          -4.2376    1.2631    2.4319 H       1  UNL1        0.0624
     38 H          -6.4559    0.8110    3.3562 H       1  UNL1        0.0618
     39 H          -8.0496   -0.8724    2.3485 H       1  UNL1        0.0625
     40 H          -8.0636   -2.7807    0.0480 H       1  UNL1        0.1035
     41 H          -4.3294   -2.1058   -1.5310 H       1  UNL1        0.1036
     42 H          -4.1868    0.7197   -2.6356 H       1  UNL1        0.0639
     43 H          -2.0468    1.2623   -4.2317 H       1  UNL1        0.0807
     44 H           0.1073    1.0811   -2.8122 H       1  UNL1        0.1654
     45 H           0.2263    1.8479    2.3712 H       1  UNL1        0.1654
     46 H           2.3426    2.6093    3.6487 H       1  UNL1        0.0807
     47 H           4.5366    1.8171    2.2440 H       1  UNL1        0.0639
     48 H           5.0189   -0.9012    1.9374 H       1  UNL1        0.1654
@<TRIPOS>BOND
     1     1     2   ar
     2     2     3   ar
     3     3     4   ar
     4     4     5   ar
     5     5     6   ar
     6     6     7    1
     7     7     8   ar
     8     8     9   ar
     9     9    10    1
    10    10    11   ar
    11    11    12   ar
    12    12    13    1
    13    13    14   ar
    14    14    15   ar
    15    15    16   ar
    16    16    17   ar
    17    17    18   ar
    18    18    19   ar
    19    19    20   ar
    20    20    21   ar
    21    12    22   ar
    22    22    23   ar
    23    23    24   ar
    24    24    25   ar
    25    25    26   ar
    26     9    27   ar
    27    27    28   ar
    28    28    29   ar
    29    29    30   ar
    30    30    31   ar
    31     6    32   ar
    32    32    33   ar
    33    33     1   ar
    34    32     3   ar
    35    31     7   ar
    36    26    10   ar
    37    31    27   ar
    38    21    13   ar
    39    26    22   ar
    40    21    17   ar
    41     1    34    1
    42     2    35    1
    43     4    36    1
    44    14    37    1
    45    15    38    1
    46    16    39    1
    47    18    40    1
    48    20    41    1
    49    23    42    1
    50    24    43    1
    51    25    44    1
    52    28    45    1
    53    29    46    1
    54    30    47    1
    55    33    48    1
