@<TRIPOS>MOLECULE
*****
 29 33 0 0 0
SMALL
GASTEIGER

@<TRIPOS>ATOM
      1 C           6.2453   -0.1021   -0.1843 C.ar    1  UNL1        0.0966
      2 C           5.5130   -1.2603   -0.0314 C.ar    1  UNL1        0.0039
      3 C           4.1635   -0.8574    0.0342 C.ar    1  UNL1        0.1293
      4 N           3.0109   -1.5659    0.1799 N.ar    1  UNL1       -0.2387
      5 C           1.8785   -0.8136    0.1997 C.ar    1  UNL1        0.1089
      6 C           0.5188   -1.1685    0.3307 C.ar    1  UNL1       -0.0087
      7 C          -0.2515   -0.0059    0.2886 C.ar    1  UNL1        0.0502
      8 C          -1.7124    0.1770    0.3812 C.ar    1  UNL1        0.0006
      9 C          -2.3031    1.4546    0.3161 C.ar    1  UNL1       -0.0505
     10 C          -3.6917    1.6518    0.4021 C.ar    1  UNL1       -0.0341
     11 C          -4.4690    0.5078    0.5571 C.ar    1  UNL1        0.0858
     12 N          -5.8128    0.2905    0.6750 N.ar    1  UNL1       -0.2571
     13 N          -6.0998   -1.0146    0.8074 N.ar    1  UNL1       -0.0673
     14 N          -4.9506   -1.6788    0.7789 N.ar    1  UNL1       -0.1296
     15 C          -3.9375   -0.7700    0.6266 C.ar    1  UNL1        0.1131
     16 C          -2.5484   -0.9460    0.5387 C.ar    1  UNL1       -0.0233
     17 N           0.6489    1.0369    0.1330 N.ar    1  UNL1       -0.3377
     18 C           1.9280    0.5666    0.0784 C.ar    1  UNL1        0.1609
     19 N           3.0490    1.3008   -0.0672 N.ar    1  UNL1       -0.1914
     20 C           4.1580    0.5323   -0.0838 C.ar    1  UNL1        0.2478
     21 O           5.4325    0.9915   -0.2173 O.2     1  UNL1       -0.4439
     22 H           7.3024    0.1058   -0.2803 H       1  UNL1        0.1031
     23 H           5.8997   -2.2665    0.0258 H       1  UNL1        0.0671
     24 H           0.1501   -2.1786    0.4441 H       1  UNL1        0.0661
     25 H          -1.6926    2.3461    0.1950 H       1  UNL1        0.0625
     26 H          -4.1252    2.6448    0.3496 H       1  UNL1        0.0639
     27 H          -6.5732    0.9588    0.6744 H       1  UNL1        0.1907
     28 H          -2.1557   -1.9544    0.5955 H       1  UNL1        0.0646
     29 H           0.4246    2.0171    0.0661 H       1  UNL1        0.1674
@<TRIPOS>BOND
     1     1     2   ar
     2     2     3   ar
     3     3     4   ar
     4     4     5   ar
     5     5     6   ar
     6     6     7   ar
     7     7     8    1
     8     8     9   ar
     9     9    10   ar
    10    10    11   ar
    11    11    12   ar
    12    12    13   ar
    13    13    14   ar
    14    14    15   ar
    15    15    16   ar
    16     7    17   ar
    17    17    18   ar
    18    18    19   ar
    19    19    20   ar
    20    20    21   ar
    21    21     1   ar
    22    20     3   ar
    23    18     5   ar
    24    16     8   ar
    25    15    11   ar
    26     1    22    1
    27     2    23    1
    28     6    24    1
    29     9    25    1
    30    10    26    1
    31    12    27    1
    32    16    28    1
    33    17    29    1
