@<TRIPOS>MOLECULE
*****
 23 26 0 0 0
SMALL
GASTEIGER

@<TRIPOS>ATOM
      1 C           4.9298    0.2028    0.1491 C.ar    1  UNL1        0.0966
      2 C           4.2343   -0.8525   -0.4019 C.ar    1  UNL1        0.0039
      3 C           2.8689   -0.5517   -0.2194 C.ar    1  UNL1        0.1293
      4 N           1.7375   -1.2268   -0.5606 N.ar    1  UNL1       -0.2387
      5 C           0.5774   -0.6094   -0.2129 C.ar    1  UNL1        0.1089
      6 C          -0.7725   -0.9870   -0.3920 C.ar    1  UNL1       -0.0086
      7 C          -1.5532    0.0154    0.1547 C.ar    1  UNL1        0.0547
      8 C          -3.0957    0.0574    0.2022 C.ar    1  UNL1        0.0570
      9 C          -4.0265   -0.8791   -0.2816 C.ar    1  UNL1        0.0791
     10 N          -5.2857   -0.4934   -0.0556 N.ar    1  UNL1       -0.0862
     11 O          -5.1824    0.7283    0.5936 O.2     1  UNL1       -0.3623
     12 C          -3.8707    1.0490    0.7431 C.ar    1  UNL1        0.1333
     13 N          -0.7156    0.9834    0.6568 N.ar    1  UNL1       -0.3376
     14 C           0.5820    0.6182    0.4411 C.ar    1  UNL1        0.1609
     15 N           1.6816    1.3127    0.7932 N.ar    1  UNL1       -0.1914
     16 C           2.8178    0.6781    0.4366 C.ar    1  UNL1        0.2478
     17 O           4.0794    1.1370    0.6606 O.2     1  UNL1       -0.4439
     18 H           5.9821    0.4306    0.2533 H       1  UNL1        0.1031
     19 H           4.6553   -1.7270   -0.8746 H       1  UNL1        0.0671
     20 H          -1.1192   -1.8930   -0.8691 H       1  UNL1        0.0661
     21 H          -3.8534   -1.8193   -0.7853 H       1  UNL1        0.0870
     22 H          -3.6806    1.9878    1.2402 H       1  UNL1        0.1064
     23 H          -0.9906    1.8386    1.1169 H       1  UNL1        0.1674
@<TRIPOS>BOND
     1     1     2   ar
     2     2     3   ar
     3     3     4   ar
     4     4     5   ar
     5     5     6   ar
     6     6     7   ar
     7     7     8    1
     8     8     9   ar
     9     9    10   ar
    10    10    11   ar
    11    11    12   ar
    12     7    13   ar
    13    13    14   ar
    14    14    15   ar
    15    15    16   ar
    16    16    17   ar
    17    17     1   ar
    18    16     3   ar
    19    14     5   ar
    20    12     8   ar
    21     1    18    1
    22     2    19    1
    23     6    20    1
    24     9    21    1
    25    12    22    1
    26    13    23    1
