@<TRIPOS>MOLECULE
*****
 35 40 0 0 0
SMALL
GASTEIGER

@<TRIPOS>ATOM
      1 SI         -2.4237    3.9442    0.3581 Si      1  UNL1        0.0000
      2 C          -0.6979    3.2266    0.2787 C.2     1  UNL1        0.0000
      3 C          -0.7413    1.8847    0.1665 C.ar    1  UNL1        0.0000
      4 C           0.3804    0.9901    0.0790 C.ar    1  UNL1        0.0000
      5 C           1.7766    1.1804    0.0795 C.ar    1  UNL1        0.0000
      6 C           2.3525   -0.0812   -0.0329 C.ar    1  UNL1        0.0000
      7 O           1.3538   -1.0281   -0.1013 O.2     1  UNL1        0.0000
      8 C           0.1695   -0.3737   -0.0332 C.ar    1  UNL1        0.0000
      9 C          -1.1460   -0.9212   -0.0646 C.ar    1  UNL1        0.0000
     10 N          -1.5049   -2.2270   -0.1703 N.ar    1  UNL1        0.0000
     11 C          -2.8846   -2.2741   -0.1589 C.ar    1  UNL1        0.0000
     12 C          -3.8906   -3.2743   -0.2318 C.ar    1  UNL1        0.0000
     13 C          -5.1373   -2.6893   -0.1688 C.ar    1  UNL1        0.0000
     14 S          -5.1114   -0.9749   -0.0252 S.2     1  UNL1        0.0000
     15 C          -3.3791   -0.9953   -0.0461 C.ar    1  UNL1        0.0000
     16 C          -2.2670   -0.1172    0.0153 C.ar    1  UNL1        0.0000
     17 C          -2.1347    1.3039    0.1332 C.ar    1  UNL1        0.0000
     18 C          -3.1192    2.2183    0.2209 C.2     1  UNL1        0.0000
     19 C           3.7367   -0.4448   -0.0788 C.ar    1  UNL1        0.0000
     20 C           4.3018   -1.7009   -0.1907 C.ar    1  UNL1        0.0000
     21 C           5.7096   -1.5465   -0.1934 C.ar    1  UNL1        0.0000
     22 C           5.9714   -0.2001   -0.0830 C.ar    1  UNL1        0.0000
     23 N           4.7701    0.4585   -0.0143 N.ar    1  UNL1        0.0000
     24 H          -2.7053    4.5714    1.6714 H       1  UNL1        0.0000
     25 H          -2.7330    4.7811   -0.8257 H       1  UNL1        0.0000
     26 H           0.1767    3.8546    0.3218 H       1  UNL1        0.0000
     27 H           2.3042    2.1192    0.1524 H       1  UNL1        0.0000
     28 H          -0.8999   -3.0348   -0.2448 H       1  UNL1        0.0000
     29 H          -3.7199   -4.3389   -0.3231 H       1  UNL1        0.0000
     30 H          -6.0949   -3.1908   -0.2003 H       1  UNL1        0.0000
     31 H          -4.1821    2.0393    0.2176 H       1  UNL1        0.0000
     32 H           3.7522   -2.6309   -0.2628 H       1  UNL1        0.0000
     33 H           6.4492   -2.3332   -0.2677 H       1  UNL1        0.0000
     34 H           6.9048    0.3453   -0.0475 H       1  UNL1        0.0000
     35 H           4.6634    1.4595    0.0711 H       1  UNL1        0.0000
@<TRIPOS>BOND
     1     1     2    1
     2     2     3    2
     3     3     4   ar
     4     4     5   ar
     5     5     6   ar
     6     6     7   ar
     7     7     8   ar
     8     8     9   ar
     9     9    10   ar
    10    10    11   ar
    11    11    12   ar
    12    12    13   ar
    13    13    14   ar
    14    14    15   ar
    15    15    16   ar
    16    16    17   ar
    17    17    18    2
    18     6    19    1
    19    19    20   ar
    20    20    21   ar
    21    21    22   ar
    22    22    23   ar
    23    18     1    1
    24    23    19   ar
    25    17     3   ar
    26     8     4   ar
    27    16     9   ar
    28    15    11   ar
    29     1    24    1
    30     1    25    1
    31     2    26    1
    32     5    27    1
    33    10    28    1
    34    12    29    1
    35    13    30    1
    36    18    31    1
    37    20    32    1
    38    21    33    1
    39    22    34    1
    40    23    35    1
