@<TRIPOS>MOLECULE
*****
 23 26 0 0 0
SMALL
GASTEIGER

@<TRIPOS>ATOM
      1 C          -4.9901   -0.4145    0.3873 C.ar    1  UNL1        0.0966
      2 C          -4.2804   -0.6844   -0.7636 C.ar    1  UNL1        0.0039
      3 C          -2.9261   -0.4576   -0.4437 C.ar    1  UNL1        0.1293
      4 N          -1.7895   -0.5646   -1.1837 N.ar    1  UNL1       -0.2387
      5 C          -0.6434   -0.2567   -0.5196 C.ar    1  UNL1        0.1090
      6 C           0.7054   -0.2471   -0.9345 C.ar    1  UNL1       -0.0072
      7 C           1.4641    0.1477    0.1525 C.ar    1  UNL1        0.0691
      8 C           3.0095    0.3029    0.1661 C.ar    1  UNL1        0.0943
      9 C           3.7350    0.6993    1.2699 C.ar    1  UNL1        0.0045
     10 S           5.4063    0.7470    0.8772 S.2     1  UNL1       -0.0832
     11 C           5.0223    0.2398   -0.7156 C.ar    1  UNL1        0.0654
     12 N           3.7483    0.0403   -0.9693 N.ar    1  UNL1       -0.2460
     13 N           0.6169    0.3761    1.2081 N.ar    1  UNL1       -0.3365
     14 C          -0.6685    0.1347    0.8160 C.ar    1  UNL1        0.1609
     15 N          -1.7747    0.2509    1.5771 N.ar    1  UNL1       -0.1914
     16 C          -2.8951   -0.0604    0.8928 C.ar    1  UNL1        0.2478
     17 O          -4.1588   -0.0350    1.3985 O.2     1  UNL1       -0.4439
     18 H          -6.0413   -0.4427    0.6403 H       1  UNL1        0.1031
     19 H          -4.6846   -1.0037   -1.7123 H       1  UNL1        0.0671
     20 H           1.0852   -0.4992   -1.9154 H       1  UNL1        0.0661
     21 H           3.3929    0.9579    2.2603 H       1  UNL1        0.0716
     22 H           5.7902    0.0941   -1.4643 H       1  UNL1        0.0907
     23 H           0.8764    0.6750    2.1357 H       1  UNL1        0.1674
@<TRIPOS>BOND
     1     1     2   ar
     2     2     3   ar
     3     3     4   ar
     4     4     5   ar
     5     5     6   ar
     6     6     7   ar
     7     7     8    1
     8     8     9   ar
     9     9    10   ar
    10    10    11   ar
    11    11    12   ar
    12     7    13   ar
    13    13    14   ar
    14    14    15   ar
    15    15    16   ar
    16    16    17   ar
    17    17     1   ar
    18    16     3   ar
    19    14     5   ar
    20    12     8   ar
    21     1    18    1
    22     2    19    1
    23     6    20    1
    24     9    21    1
    25    11    22    1
    26    13    23    1
