@<TRIPOS>MOLECULE
*****
 40 45 0 0 0
SMALL
GASTEIGER

@<TRIPOS>ATOM
      1 C           6.1221   -1.3157    1.5215 C.ar    1  UNL1        0.0042
      2 C           6.0607   -1.3442    0.1447 C.ar    1  UNL1       -0.0183
      3 C           4.7659   -0.9173   -0.2313 C.ar    1  UNL1        0.0885
      4 N           4.2375   -0.7813   -1.4697 N.ar    1  UNL1       -0.2529
      5 C           2.9552   -0.3450   -1.4879 C.ar    1  UNL1        0.0361
      6 C           2.1646   -0.0296   -0.3780 C.ar    1  UNL1        0.0029
      7 C           2.7365   -0.1880    0.8911 C.ar    1  UNL1       -0.0271
      8 C           4.0583   -0.6365    0.9336 C.ar    1  UNL1        0.0656
      9 N           4.9052   -0.8849    1.9881 N.ar    1  UNL1       -0.3594
     10 C           0.7932    0.4320   -0.5256 C.ar    1  UNL1       -0.0050
     11 C          -0.3532   -0.2506   -0.0178 C.ar    1  UNL1       -0.0450
     12 C          -1.7565    0.1610   -0.1323 C.ar    1  UNL1       -0.0089
     13 C          -2.0825    1.3804   -0.8147 C.ar    1  UNL1       -0.0065
     14 C          -3.4043    1.8363   -0.9594 C.ar    1  UNL1       -0.0528
     15 C          -4.4431    1.0869   -0.4271 C.ar    1  UNL1       -0.0534
     16 C          -4.1919   -0.1125    0.2487 C.ar    1  UNL1       -0.0173
     17 C          -5.2787   -0.8352    0.7688 C.ar    1  UNL1       -0.0540
     18 C          -5.0884   -2.0346    1.4485 C.ar    1  UNL1       -0.0612
     19 C          -3.8045   -2.5271    1.6162 C.ar    1  UNL1       -0.0611
     20 C          -2.7123   -1.8189    1.1045 C.ar    1  UNL1       -0.0534
     21 C          -2.8590   -0.5931    0.4064 C.ar    1  UNL1       -0.0101
     22 C          -0.9417    2.0538   -1.3090 C.ar    1  UNL1        0.0281
     23 C          -0.8829    3.2415   -1.9936 C.ar    1  UNL1        0.1000
     24 O           0.4184    3.5520   -2.2732 O.2     1  UNL1       -0.4698
     25 C           1.1968    2.5518   -1.7619 C.ar    1  UNL1        0.1000
     26 C           0.4018    1.6027   -1.1701 C.ar    1  UNL1        0.0282
     27 H           6.9231   -1.5625    2.2055 H       1  UNL1        0.0807
     28 H           6.8558   -1.6379   -0.5261 H       1  UNL1        0.0654
     29 H           2.5452   -0.2542   -2.4929 H       1  UNL1        0.0836
     30 H           2.1856    0.0391    1.7978 H       1  UNL1        0.0645
     31 H           4.6642   -0.7651    2.9626 H       1  UNL1        0.1654
     32 H          -0.1385   -1.1858    0.5006 H       1  UNL1        0.0630
     33 H          -3.6281    2.7627   -1.4794 H       1  UNL1        0.0624
     34 H          -5.4617    1.4512   -0.5465 H       1  UNL1        0.0624
     35 H          -6.2953   -0.4659    0.6466 H       1  UNL1        0.0624
     36 H          -5.9411   -2.5803    1.8429 H       1  UNL1        0.0618
     37 H          -3.6444   -3.4640    2.1438 H       1  UNL1        0.0618
     38 H          -1.7327   -2.2583    1.2669 H       1  UNL1        0.0624
     39 H          -1.6110    3.9602   -2.3415 H       1  UNL1        0.1036
     40 H           2.2616    2.6770   -1.9040 H       1  UNL1        0.1036
@<TRIPOS>BOND
     1     1     2   ar
     2     2     3   ar
     3     3     4   ar
     4     4     5   ar
     5     5     6   ar
     6     6     7   ar
     7     7     8   ar
     8     8     9   ar
     9     6    10    1
    10    10    11   ar
    11    11    12   ar
    12    12    13   ar
    13    13    14   ar
    14    14    15   ar
    15    15    16   ar
    16    16    17   ar
    17    17    18   ar
    18    18    19   ar
    19    19    20   ar
    20    20    21   ar
    21    13    22   ar
    22    22    23   ar
    23    23    24   ar
    24    24    25   ar
    25    25    26   ar
    26     9     1   ar
    27    26    10   ar
    28     8     3   ar
    29    21    12   ar
    30    26    22   ar
    31    21    16   ar
    32     1    27    1
    33     2    28    1
    34     5    29    1
    35     7    30    1
    36     9    31    1
    37    11    32    1
    38    14    33    1
    39    15    34    1
    40    17    35    1
    41    18    36    1
    42    19    37    1
    43    20    38    1
    44    23    39    1
    45    25    40    1
