@<TRIPOS>MOLECULE
*****
 37 42 0 0 0
SMALL
GASTEIGER

@<TRIPOS>ATOM
      1 C           6.3974    1.9105   -0.1141 C.ar    1  UNL1       -0.0217
      2 C           6.1927    0.9629    0.8629 C.ar    1  UNL1       -0.0287
      3 C           4.8769    0.4171    0.8255 C.ar    1  UNL1        0.0780
      4 N           4.4000   -0.5344    1.6699 N.ar    1  UNL1       -0.2538
      5 C           3.1202   -0.9157    1.4516 C.ar    1  UNL1        0.0361
      6 C           2.2613   -0.4220    0.4690 C.ar    1  UNL1        0.0034
      7 C           2.7807    0.5609   -0.3836 C.ar    1  UNL1       -0.0367
      8 C           4.1086    0.9759   -0.1939 C.ar    1  UNL1        0.0381
      9 S           5.0057    2.1464   -1.0783 S.2     1  UNL1       -0.0951
     10 C           0.8757   -0.8849    0.3357 C.ar    1  UNL1        0.0124
     11 C          -0.2291    0.0075    0.2383 C.ar    1  UNL1       -0.0435
     12 C          -1.6146   -0.3517    0.0974 C.ar    1  UNL1       -0.0074
     13 C          -1.9581   -1.7327    0.0454 C.ar    1  UNL1        0.0109
     14 C          -3.2912   -2.1536   -0.0916 C.ar    1  UNL1       -0.0513
     15 C          -4.3101   -1.2153   -0.1795 C.ar    1  UNL1       -0.0534
     16 C          -4.0283    0.1529   -0.1330 C.ar    1  UNL1       -0.0173
     17 C          -5.0903    1.0680   -0.2251 C.ar    1  UNL1       -0.0540
     18 C          -4.8641    2.4404   -0.1837 C.ar    1  UNL1       -0.0612
     19 C          -3.5692    2.9143   -0.0494 C.ar    1  UNL1       -0.0611
     20 C          -2.5022    2.0147    0.0433 C.ar    1  UNL1       -0.0534
     21 C          -2.6868    0.6083    0.0055 C.ar    1  UNL1       -0.0101
     22 C          -0.8993   -2.6999    0.1377 C.ar    1  UNL1        0.1082
     23 N          -1.0352   -4.0394    0.1062 N.ar    1  UNL1       -0.1901
     24 S           0.4834   -4.6834    0.2374 S.2     1  UNL1        0.1165
     25 N           1.3883   -3.3029    0.3494 N.ar    1  UNL1       -0.1901
     26 C           0.5359   -2.2642    0.2853 C.ar    1  UNL1        0.1082
     27 H           7.2984    2.4760   -0.3091 H       1  UNL1        0.0694
     28 H           6.9469    0.6639    1.5788 H       1  UNL1        0.0644
     29 H           2.7773   -1.6790    2.1492 H       1  UNL1        0.0836
     30 H           2.1860    0.9893   -1.1850 H       1  UNL1        0.0636
     31 H           0.0223    1.0675    0.2906 H       1  UNL1        0.0631
     32 H          -3.5387   -3.2129   -0.1301 H       1  UNL1        0.0624
     33 H          -5.3344   -1.5679   -0.2851 H       1  UNL1        0.0624
     34 H          -6.1146    0.7150   -0.3308 H       1  UNL1        0.0624
     35 H          -5.6975    3.1339   -0.2560 H       1  UNL1        0.0618
     36 H          -3.3815    3.9846   -0.0156 H       1  UNL1        0.0618
     37 H          -1.5127    2.4498    0.1475 H       1  UNL1        0.0624
@<TRIPOS>BOND
     1     1     2   ar
     2     2     3   ar
     3     3     4   ar
     4     4     5   ar
     5     5     6   ar
     6     6     7   ar
     7     7     8   ar
     8     8     9   ar
     9     6    10    1
    10    10    11   ar
    11    11    12   ar
    12    12    13   ar
    13    13    14   ar
    14    14    15   ar
    15    15    16   ar
    16    16    17   ar
    17    17    18   ar
    18    18    19   ar
    19    19    20   ar
    20    20    21   ar
    21    13    22   ar
    22    22    23   ar
    23    23    24   ar
    24    24    25   ar
    25    25    26   ar
    26     9     1   ar
    27    26    10   ar
    28     8     3   ar
    29    21    12   ar
    30    26    22   ar
    31    21    16   ar
    32     1    27    1
    33     2    28    1
    34     5    29    1
    35     7    30    1
    36    11    31    1
    37    14    32    1
    38    15    33    1
    39    17    34    1
    40    18    35    1
    41    19    36    1
    42    20    37    1
