@<TRIPOS>MOLECULE
*****
 43 49 0 0 0
SMALL
GASTEIGER

@<TRIPOS>ATOM
      1 C           7.4750   -0.2660   -1.9011 C.ar    1  UNL1       -0.0217
      2 C           7.1063   -1.2696   -1.0381 C.ar    1  UNL1       -0.0287
      3 C           5.7442   -1.1667   -0.6312 C.ar    1  UNL1        0.0786
      4 N           5.1330   -2.0300    0.2151 N.ar    1  UNL1       -0.2538
      5 C           3.8331   -1.7677    0.4837 C.ar    1  UNL1        0.0367
      6 C           3.0528   -0.7092   -0.0127 C.ar    1  UNL1        0.0111
      7 C           3.7221    0.1686   -0.8903 C.ar    1  UNL1       -0.0000
      8 C           3.0440    1.2663   -1.4516 C.ar    1  UNL1       -0.0523
      9 C           1.7038    1.5055   -1.1521 C.ar    1  UNL1       -0.0533
     10 C           0.9878    0.6721   -0.2909 C.ar    1  UNL1       -0.0145
     11 C          -0.3724    0.9903   -0.0433 C.ar    1  UNL1       -0.0441
     12 C          -1.2300    0.2499    0.7946 C.ar    1  UNL1        0.0115
     13 C          -2.6309    0.6182    1.0186 C.ar    1  UNL1       -0.0080
     14 C          -2.9600    1.2938    2.2087 C.ar    1  UNL1       -0.0534
     15 C          -4.2656    1.6974    2.4677 C.ar    1  UNL1       -0.0606
     16 C          -5.2673    1.4346    1.5387 C.ar    1  UNL1       -0.0540
     17 C          -4.9818    0.7606    0.3428 C.ar    1  UNL1       -0.0173
     18 C          -6.0094    0.5018   -0.5798 C.ar    1  UNL1       -0.0540
     19 C          -5.7522   -0.1723   -1.7721 C.ar    1  UNL1       -0.0612
     20 C          -4.4630   -0.6000   -2.0569 C.ar    1  UNL1       -0.0611
     21 C          -3.4302   -0.3497   -1.1502 C.ar    1  UNL1       -0.0534
     22 C          -3.6556    0.3381    0.0668 C.ar    1  UNL1       -0.0101
     23 C          -0.6418   -0.8795    1.4181 C.ar    1  UNL1        0.1082
     24 N          -1.2572   -1.7282    2.2602 N.ar    1  UNL1       -0.1901
     25 S          -0.1483   -2.8694    2.6973 S.2     1  UNL1        0.1165
     26 N           1.1703   -2.3451    1.8511 N.ar    1  UNL1       -0.1901
     27 C           0.8107   -1.2414    1.1703 C.ar    1  UNL1        0.1088
     28 C           1.6578   -0.4523    0.2933 C.ar    1  UNL1        0.0195
     29 C           5.0931   -0.0719   -1.1999 C.ar    1  UNL1        0.0453
     30 S           6.1839    0.8007   -2.2229 S.2     1  UNL1       -0.0945
     31 H           8.4424   -0.1086   -2.3583 H       1  UNL1        0.0694
     32 H           7.7750   -2.0519   -0.7036 H       1  UNL1        0.0644
     33 H           3.4139   -2.5008    1.1670 H       1  UNL1        0.0836
     34 H           3.5471    1.9522   -2.1300 H       1  UNL1        0.0624
     35 H           1.2260    2.3694   -1.6138 H       1  UNL1        0.0624
     36 H          -0.8022    1.8695   -0.5318 H       1  UNL1        0.0630
     37 H          -2.1884    1.5064    2.9467 H       1  UNL1        0.0624
     38 H          -4.5025    2.2147    3.3936 H       1  UNL1        0.0618
     39 H          -6.2825    1.7578    1.7598 H       1  UNL1        0.0624
     40 H          -7.0279    0.8238   -0.3725 H       1  UNL1        0.0624
     41 H          -6.5598   -0.3666   -2.4728 H       1  UNL1        0.0618
     42 H          -4.2565   -1.1333   -2.9811 H       1  UNL1        0.0618
     43 H          -2.4368   -0.7114   -1.4059 H       1  UNL1        0.0624
@<TRIPOS>BOND
     1     1     2   ar
     2     2     3   ar
     3     3     4   ar
     4     4     5   ar
     5     5     6   ar
     6     6     7   ar
     7     7     8   ar
     8     8     9   ar
     9     9    10   ar
    10    10    11   ar
    11    11    12   ar
    12    12    13    1
    13    13    14   ar
    14    14    15   ar
    15    15    16   ar
    16    16    17   ar
    17    17    18   ar
    18    18    19   ar
    19    19    20   ar
    20    20    21   ar
    21    21    22   ar
    22    12    23   ar
    23    23    24   ar
    24    24    25   ar
    25    25    26   ar
    26    26    27   ar
    27    27    28   ar
    28     7    29   ar
    29    29    30   ar
    30    30     1   ar
    31    29     3   ar
    32    28     6   ar
    33    28    10   ar
    34    22    13   ar
    35    27    23   ar
    36    22    17   ar
    37     1    31    1
    38     2    32    1
    39     5    33    1
    40     8    34    1
    41     9    35    1
    42    11    36    1
    43    14    37    1
    44    15    38    1
    45    16    39    1
    46    18    40    1
    47    19    41    1
    48    20    42    1
    49    21    43    1
