@<TRIPOS>MOLECULE
*****
 37 43 0 0 0
SMALL
GASTEIGER

@<TRIPOS>ATOM
      1 C           6.3671    1.0168   -1.7919 C.ar    1  UNL1        0.0948
      2 C           6.6171    0.1638   -0.7352 C.ar    1  UNL1        0.0023
      3 C           5.3557   -0.1955   -0.2144 C.ar    1  UNL1        0.1125
      4 N           5.0038   -1.0013    0.8159 N.ar    1  UNL1       -0.2509
      5 C           3.6829   -1.1750    1.1086 C.ar    1  UNL1        0.0399
      6 C           2.6313   -0.5697    0.4062 C.ar    1  UNL1        0.0503
      7 C           2.9595    0.2620   -0.6553 C.ar    1  UNL1        0.1818
      8 O           1.8704    0.7969   -1.2677 O.2     1  UNL1       -0.4509
      9 C           0.7811    0.3109   -0.5960 C.ar    1  UNL1        0.1377
     10 C          -0.5634    0.6013   -0.8861 C.ar    1  UNL1       -0.0103
     11 C          -1.5941    0.0274   -0.1005 C.ar    1  UNL1       -0.0040
     12 C          -3.0003    0.2909   -0.3610 C.ar    1  UNL1        0.0110
     13 C          -3.6758   -0.2173   -1.4963 C.ar    1  UNL1       -0.0518
     14 C          -5.0399    0.0348   -1.7772 C.ar    1  UNL1       -0.0590
     15 C          -5.8579    0.8240   -0.9527 C.ar    1  UNL1       -0.0335
     16 C          -5.2421    1.3720    0.1974 C.ar    1  UNL1        0.1005
     17 N          -5.8456    2.1518    1.1074 N.ar    1  UNL1       -0.1908
     18 S          -4.6932    2.5292    2.2406 S.2     1  UNL1        0.1165
     19 N          -3.3809    1.7171    1.6343 N.ar    1  UNL1       -0.1902
     20 C          -3.7858    1.1078    0.5055 C.ar    1  UNL1        0.1076
     21 C          -1.1204   -0.8224    0.9243 C.ar    1  UNL1       -0.0023
     22 C          -1.9427   -1.5100    1.7944 C.ar    1  UNL1       -0.0160
     23 S          -1.0582   -2.4662    2.9280 S.2     1  UNL1       -0.1038
     24 C           0.4581   -1.9842    2.2690 C.ar    1  UNL1       -0.0159
     25 C           0.2375   -1.1297    1.2297 C.ar    1  UNL1        0.0011
     26 C           1.2334   -0.5158    0.4143 C.ar    1  UNL1        0.0377
     27 C           4.4342    0.4656   -0.9927 C.ar    1  UNL1        0.1955
     28 O           5.0259    1.2067   -1.9566 O.2     1  UNL1       -0.4576
     29 H           6.9992    1.5467   -2.4915 H       1  UNL1        0.1030
     30 H           7.5854   -0.1587   -0.3835 H       1  UNL1        0.0670
     31 H           3.5011   -1.8358    1.9505 H       1  UNL1        0.0837
     32 H          -0.7991    1.2748   -1.7055 H       1  UNL1        0.0661
     33 H          -3.1205   -0.8445   -2.1966 H       1  UNL1        0.0624
     34 H          -5.4753   -0.4038   -2.6759 H       1  UNL1        0.0618
     35 H          -6.9009    1.0097   -1.1793 H       1  UNL1        0.0640
     36 H          -3.0224   -1.5151    1.8512 H       1  UNL1        0.0700
     37 H           1.3746   -2.3651    2.6923 H       1  UNL1        0.0700
@<TRIPOS>BOND
     1     1     2   ar
     2     2     3   ar
     3     3     4   ar
     4     4     5   ar
     5     5     6   ar
     6     6     7   ar
     7     7     8   ar
     8     8     9   ar
     9     9    10   ar
    10    10    11   ar
    11    11    12    1
    12    12    13   ar
    13    13    14   ar
    14    14    15   ar
    15    15    16   ar
    16    16    17   ar
    17    17    18   ar
    18    18    19   ar
    19    19    20   ar
    20    11    21   ar
    21    21    22   ar
    22    22    23   ar
    23    23    24   ar
    24    24    25   ar
    25    25    26   ar
    26     7    27   ar
    27    27    28   ar
    28    28     1   ar
    29    27     3   ar
    30    26     6   ar
    31    26     9   ar
    32    20    12   ar
    33    25    21   ar
    34    20    16   ar
    35     1    29    1
    36     2    30    1
    37     5    31    1
    38    10    32    1
    39    13    33    1
    40    14    34    1
    41    15    35    1
    42    22    36    1
    43    24    37    1
