@<TRIPOS>MOLECULE
*****
 37 43 0 0 0
SMALL
GASTEIGER

@<TRIPOS>ATOM
      1 C          -6.5590   -0.8092   -0.0865 C.ar    1  UNL1        0.0947
      2 C          -6.4474    0.3783    0.5999 C.ar    1  UNL1        0.0022
      3 C          -5.0661    0.6628    0.6635 C.ar    1  UNL1        0.1095
      4 N          -4.4165    1.7061    1.2254 N.ar    1  UNL1       -0.2511
      5 C          -3.0628    1.6568    1.0958 C.ar    1  UNL1        0.0368
      6 C          -2.2783    0.6687    0.4594 C.ar    1  UNL1        0.0137
      7 C          -0.8245    0.7077    0.3740 C.ar    1  UNL1       -0.0064
      8 C          -0.0353    1.7421    0.9203 C.ar    1  UNL1       -0.0527
      9 C           1.3699    1.7614    0.8270 C.ar    1  UNL1       -0.0529
     10 C           2.0880    0.7479    0.1806 C.ar    1  UNL1       -0.0100
     11 C           1.3318   -0.2899   -0.3701 C.ar    1  UNL1       -0.0436
     12 C          -0.0846   -0.3181   -0.2812 C.ar    1  UNL1        0.0115
     13 C          -0.8242   -1.4022   -0.8603 C.ar    1  UNL1        0.1083
     14 N          -0.3076   -2.4585   -1.5167 N.ar    1  UNL1       -0.1901
     15 S          -1.5828   -3.4085   -1.9775 S.2     1  UNL1        0.1165
     16 N          -2.8440   -2.5305   -1.3699 N.ar    1  UNL1       -0.1900
     17 C          -2.3245   -1.4436   -0.7728 C.ar    1  UNL1        0.1118
     18 C          -3.0259   -0.4031   -0.1119 C.ar    1  UNL1        0.0567
     19 C          -4.4148   -0.3724    0.0095 C.ar    1  UNL1        0.1627
     20 O          -5.3326   -1.2725   -0.4488 O.2     1  UNL1       -0.4606
     21 C           3.5645    0.7552    0.0750 C.ar    1  UNL1        0.0302
     22 S           4.5215    2.0629    0.7687 S.2     1  UNL1       -0.0923
     23 C           6.0353    1.4079    0.2729 C.ar    1  UNL1        0.0192
     24 C           5.7833    0.2623   -0.3785 C.ar    1  UNL1        0.1424
     25 O           6.7202   -0.5573   -0.9277 O.2     1  UNL1       -0.4624
     26 C           5.8970   -1.5378   -1.4400 C.ar    1  UNL1        0.0932
     27 C           4.5337   -1.3171   -1.2094 C.ar    1  UNL1       -0.0150
     28 C           4.4603   -0.1007   -0.4924 C.ar    1  UNL1        0.0349
     29 H          -7.3950   -1.4266   -0.3854 H       1  UNL1        0.1030
     30 H          -7.2553    0.9683    1.0052 H       1  UNL1        0.0670
     31 H          -2.5938    2.5191    1.5653 H       1  UNL1        0.0836
     32 H          -0.4883    2.5806    1.4446 H       1  UNL1        0.0624
     33 H           1.8793    2.6075    1.2840 H       1  UNL1        0.0624
     34 H           1.8219   -1.1092   -0.8859 H       1  UNL1        0.0630
     35 H           6.9907    1.8706    0.4724 H       1  UNL1        0.0731
     36 H           6.4256   -2.3354   -1.9458 H       1  UNL1        0.1030
     37 H           3.7403   -1.9735   -1.5342 H       1  UNL1        0.0655
@<TRIPOS>BOND
     1     1     2   ar
     2     2     3   ar
     3     3     4   ar
     4     4     5   ar
     5     5     6   ar
     6     6     7   ar
     7     7     8   ar
     8     8     9   ar
     9     9    10   ar
    10    10    11   ar
    11    11    12   ar
    12    12    13   ar
    13    13    14   ar
    14    14    15   ar
    15    15    16   ar
    16    16    17   ar
    17    17    18   ar
    18    18    19   ar
    19    19    20   ar
    20    10    21    1
    21    21    22   ar
    22    22    23   ar
    23    23    24   ar
    24    24    25   ar
    25    25    26   ar
    26    26    27   ar
    27    27    28   ar
    28    20     1   ar
    29    28    21   ar
    30    19     3   ar
    31    28    24   ar
    32    18     6   ar
    33    12     7   ar
    34    17    13   ar
    35     1    29    1
    36     2    30    1
    37     5    31    1
    38     8    32    1
    39     9    33    1
    40    11    34    1
    41    23    35    1
    42    26    36    1
    43    27    37    1
