@<TRIPOS>MOLECULE
*****
 36 41 0 0 0
SMALL
GASTEIGER

@<TRIPOS>ATOM
      1 C           6.6904    1.2258   -1.9644 C.ar    1  UNL1       -0.0216
      2 C           6.6735   -0.0883   -1.5345 C.ar    1  UNL1       -0.0286
      3 C           5.3916   -0.4817   -1.0540 C.ar    1  UNL1        0.0816
      4 N           5.0310   -1.6962   -0.5616 N.ar    1  UNL1       -0.2536
      5 C           3.7564   -1.9121   -0.1407 C.ar    1  UNL1        0.0396
      6 C           2.7475   -0.9447   -0.1760 C.ar    1  UNL1        0.0471
      7 C           1.3707   -0.8614    0.1763 C.ar    1  UNL1        0.0294
      8 C           0.4154   -1.7353    0.7238 C.ar    1  UNL1       -0.0498
      9 C          -0.8907   -1.2620    0.9302 C.ar    1  UNL1       -0.0532
     10 C          -1.2679    0.0532    0.6021 C.ar    1  UNL1       -0.0138
     11 C          -0.3135    0.9316    0.0606 C.ar    1  UNL1       -0.0110
     12 C           0.9751    0.4375   -0.1347 C.ar    1  UNL1        0.1369
     13 O           2.0185    1.1468   -0.6514 O.2     1  UNL1       -0.4535
     14 C           3.0750    0.3011   -0.6692 C.ar    1  UNL1        0.1534
     15 C           4.5059    0.5645   -1.1486 C.ar    1  UNL1        0.0804
     16 S           5.1547    1.9791   -1.7849 S.2     1  UNL1       -0.0914
     17 C          -2.6317    0.5136    0.8378 C.ar    1  UNL1       -0.0096
     18 C          -2.9754    1.4804    1.8201 C.ar    1  UNL1       -0.0534
     19 C          -4.3094    1.9385    2.0728 C.ar    1  UNL1       -0.0606
     20 C          -5.4440    1.4836    1.3696 C.ar    1  UNL1       -0.0535
     21 C          -5.1080    0.5408    0.3986 C.ar    1  UNL1       -0.0103
     22 C          -6.0478   -0.0367   -0.4189 C.ar    1  UNL1       -0.0166
     23 S          -5.3226   -1.1403   -1.5183 S.2     1  UNL1       -0.1039
     24 C          -3.7467   -0.8392   -0.8983 C.ar    1  UNL1       -0.0160
     25 C          -3.7682    0.0699    0.1350 C.ar    1  UNL1       -0.0032
     26 H           7.5234    1.7809   -2.3736 H       1  UNL1        0.0694
     27 H           7.5362   -0.7406   -1.5612 H       1  UNL1        0.0644
     28 H           3.5647   -2.9130    0.2359 H       1  UNL1        0.0837
     29 H           0.6736   -2.7567    0.9876 H       1  UNL1        0.0625
     30 H          -1.6270   -1.9399    1.3625 H       1  UNL1        0.0624
     31 H          -0.5594    1.9536   -0.2068 H       1  UNL1        0.0660
     32 H          -2.1769    1.9021    2.4335 H       1  UNL1        0.0624
     33 H          -4.4522    2.6830    2.8570 H       1  UNL1        0.0618
     34 H          -6.4436    1.8430    1.5744 H       1  UNL1        0.0624
     35 H          -7.1169    0.1234   -0.4434 H       1  UNL1        0.0699
     36 H          -2.9015   -1.3511   -1.3371 H       1  UNL1        0.0700
@<TRIPOS>BOND
     1     1     2   ar
     2     2     3   ar
     3     3     4   ar
     4     4     5   ar
     5     5     6   ar
     6     6     7   ar
     7     7     8   ar
     8     8     9   ar
     9     9    10   ar
    10    10    11   ar
    11    11    12   ar
    12    12    13   ar
    13    13    14   ar
    14    14    15   ar
    15    15    16   ar
    16    10    17    1
    17    17    18   ar
    18    18    19   ar
    19    19    20   ar
    20    20    21   ar
    21    21    22   ar
    22    22    23   ar
    23    23    24   ar
    24    24    25   ar
    25    16     1   ar
    26    25    17   ar
    27    15     3   ar
    28    25    21   ar
    29    14     6   ar
    30    12     7   ar
    31     1    26    1
    32     2    27    1
    33     5    28    1
    34     8    29    1
    35     9    30    1
    36    11    31    1
    37    18    32    1
    38    19    33    1
    39    20    34    1
    40    22    35    1
    41    24    36    1
