@<TRIPOS>MOLECULE
*****
 35 40 0 0 0
SMALL
GASTEIGER

@<TRIPOS>ATOM
      1 C          -5.7457    0.1365   -0.1966 C.ar    1  UNL1        0.0042
      2 C          -5.4224   -0.0361    1.1294 C.ar    1  UNL1       -0.0183
      3 C          -4.0122   -0.0791    1.2158 C.ar    1  UNL1        0.0891
      4 N          -3.2459   -0.2337    2.3161 N.ar    1  UNL1       -0.2528
      5 C          -1.9090   -0.2363    2.0917 C.ar    1  UNL1        0.0367
      6 C          -1.2327   -0.0992    0.8677 C.ar    1  UNL1        0.0121
      7 C           0.2455   -0.1171    0.7401 C.ar    1  UNL1        0.0102
      8 C           1.1328   -0.2712    1.8147 C.ar    1  UNL1        0.0366
      9 N           2.4926   -0.2939    1.7468 N.ar    1  UNL1       -0.2538
     10 C           3.0802   -0.1565    0.5366 C.ar    1  UNL1        0.0796
     11 C           2.3332    0.0044   -0.6177 C.ar    1  UNL1       -0.0267
     12 C           0.9240    0.0229   -0.5082 C.ar    1  UNL1       -0.0030
     13 C           0.0181    0.1768   -1.5774 C.ar    1  UNL1        0.0283
     14 C           0.3124    0.3358   -2.9075 C.ar    1  UNL1        0.1000
     15 O          -0.8431    0.4513   -3.6225 O.2     1  UNL1       -0.4698
     16 C          -1.8820    0.3649   -2.7388 C.ar    1  UNL1        0.1001
     17 C          -1.4046    0.1951   -1.4631 C.ar    1  UNL1        0.0302
     18 C          -2.1043    0.0612   -0.2599 C.ar    1  UNL1        0.0203
     19 C          -3.4917    0.0690   -0.0681 C.ar    1  UNL1        0.0735
     20 N          -4.5739    0.1983   -0.9081 N.ar    1  UNL1       -0.3589
     21 C           4.5458   -0.1956    0.5818 C.ar    1  UNL1        0.0570
     22 C           5.3733   -0.3518    1.6841 C.ar    1  UNL1        0.0439
     23 N           6.7354   -0.3528    1.4425 N.ar    1  UNL1       -0.2550
     24 C           6.9381   -0.1971    0.1552 C.ar    1  UNL1        0.0653
     25 S           5.5384   -0.0440   -0.8180 S.2     1  UNL1       -0.0739
     26 H          -6.7031    0.2203   -0.6937 H       1  UNL1        0.0807
     27 H          -6.1167   -0.1229    1.9535 H       1  UNL1        0.0654
     28 H          -1.3574   -0.3645    3.0202 H       1  UNL1        0.0836
     29 H           0.7762   -0.3901    2.8344 H       1  UNL1        0.0836
     30 H           2.8063    0.1141   -1.5856 H       1  UNL1        0.0645
     31 H           1.2210    0.3877   -3.4907 H       1  UNL1        0.1036
     32 H          -2.8545    0.4443   -3.1976 H       1  UNL1        0.1036
     33 H          -4.5275    0.3218   -1.9079 H       1  UNL1        0.1654
     34 H           5.0213   -0.4706    2.7028 H       1  UNL1        0.0842
     35 H           7.9320   -0.1667   -0.2719 H       1  UNL1        0.0907
@<TRIPOS>BOND
     1     1     2   ar
     2     2     3   ar
     3     3     4   ar
     4     4     5   ar
     5     5     6   ar
     6     6     7   ar
     7     7     8   ar
     8     8     9   ar
     9     9    10   ar
    10    10    11   ar
    11    11    12   ar
    12    12    13   ar
    13    13    14   ar
    14    14    15   ar
    15    15    16   ar
    16    16    17   ar
    17    17    18   ar
    18    18    19   ar
    19    19    20   ar
    20    10    21    1
    21    21    22   ar
    22    22    23   ar
    23    23    24   ar
    24    24    25   ar
    25    20     1   ar
    26    25    21   ar
    27    19     3   ar
    28    18     6   ar
    29    12     7   ar
    30    17    13   ar
    31     1    26    1
    32     2    27    1
    33     5    28    1
    34     8    29    1
    35    11    30    1
    36    14    31    1
    37    16    32    1
    38    20    33    1
    39    22    34    1
    40    24    35    1
