@<TRIPOS>MOLECULE
*****
 28 32 0 0 0
SMALL
GASTEIGER

@<TRIPOS>ATOM
      1 C           5.5055    0.5418   -0.5881 C.ar    1  UNL1        0.0948
      2 C           5.1691    0.7036    0.7373 C.ar    1  UNL1        0.0023
      3 C           3.7662    0.5511    0.8090 C.ar    1  UNL1        0.1110
      4 N           2.9367    0.6175    1.8835 N.ar    1  UNL1       -0.2509
      5 C           1.6293    0.4215    1.5948 C.ar    1  UNL1        0.0412
      6 C           1.1279    0.1690    0.3138 C.ar    1  UNL1        0.0649
      7 C          -0.2145   -0.0388   -0.0262 C.ar    1  UNL1        0.1479
      8 O          -1.2719   -0.0322    0.8293 O.2     1  UNL1       -0.4535
      9 C          -2.4128   -0.2750    0.1035 C.ar    1  UNL1        0.1444
     10 C          -2.0575   -0.4355   -1.2284 C.ar    1  UNL1       -0.0060
     11 C          -0.6479   -0.2855   -1.3210 C.ar    1  UNL1        0.0395
     12 C           0.3034   -0.3301   -2.3455 C.ar    1  UNL1        0.0392
     13 N           1.6186   -0.1352   -2.0695 N.ar    1  UNL1       -0.2503
     14 C           1.9870    0.1023   -0.7860 C.ar    1  UNL1        0.1202
     15 C           3.3318    0.3036   -0.4901 C.ar    1  UNL1        0.1788
     16 O           4.3995    0.2987   -1.3426 O.2     1  UNL1       -0.4592
     17 C          -3.7164   -0.3362    0.7008 C.ar    1  UNL1        0.0738
     18 C          -4.9374   -0.5701    0.0953 C.ar    1  UNL1        0.0454
     19 N          -6.0408   -0.5721    0.9294 N.ar    1  UNL1       -0.2550
     20 C          -5.6459   -0.3394    2.1611 C.ar    1  UNL1        0.0653
     21 S          -3.9631   -0.1094    2.3864 S.2     1  UNL1       -0.0724
     22 H           6.4400    0.5682   -1.1316 H       1  UNL1        0.1030
     23 H           5.8454    0.9060    1.5540 H       1  UNL1        0.0670
     24 H           0.9605    0.4735    2.4514 H       1  UNL1        0.0837
     25 H          -2.7359   -0.6384   -2.0456 H       1  UNL1        0.0662
     26 H           0.0530   -0.5167   -3.3842 H       1  UNL1        0.0837
     27 H          -5.0909   -0.7482   -0.9621 H       1  UNL1        0.0842
     28 H          -6.3389   -0.2942    2.9912 H       1  UNL1        0.0907
@<TRIPOS>BOND
     1     1     2   ar
     2     2     3   ar
     3     3     4   ar
     4     4     5   ar
     5     5     6   ar
     6     6     7   ar
     7     7     8   ar
     8     8     9   ar
     9     9    10   ar
    10    10    11   ar
    11    11    12   ar
    12    12    13   ar
    13    13    14   ar
    14    14    15   ar
    15    15    16   ar
    16     9    17    1
    17    17    18   ar
    18    18    19   ar
    19    19    20   ar
    20    20    21   ar
    21    16     1   ar
    22    21    17   ar
    23    15     3   ar
    24    14     6   ar
    25    11     7   ar
    26     1    22    1
    27     2    23    1
    28     5    24    1
    29    10    25    1
    30    12    26    1
    31    18    27    1
    32    20    28    1
