@<TRIPOS>MOLECULE
*****
 26 29 0 0 0
SMALL
GASTEIGER

@<TRIPOS>ATOM
      1 C           4.5494   -0.9608   -0.8766 C.ar    1  UNL1        0.0043
      2 C           4.5941   -0.0568    0.1651 C.ar    1  UNL1       -0.0183
      3 C           3.2608    0.3038    0.4745 C.ar    1  UNL1        0.0905
      4 N           2.7983    1.1584    1.4195 N.ar    1  UNL1       -0.2527
      5 C           1.4511    1.2859    1.4602 C.ar    1  UNL1        0.0376
      6 C           0.5366    0.6266    0.6313 C.ar    1  UNL1        0.0211
      7 C          -0.8639    0.7668    0.6824 C.ar    1  UNL1       -0.0413
      8 C          -1.6899    0.0525   -0.2027 C.ar    1  UNL1        0.0089
      9 C          -1.0339   -0.7862   -1.1143 C.ar    1  UNL1        0.0366
     10 N           0.3101   -0.9575   -1.2055 N.ar    1  UNL1       -0.2522
     11 C           1.0491   -0.2447   -0.3290 C.ar    1  UNL1        0.0977
     12 C           2.4298   -0.3943   -0.3924 C.ar    1  UNL1        0.0912
     13 N           3.2316   -1.1569   -1.2052 N.ar    1  UNL1       -0.3577
     14 C          -3.1623    0.1571   -0.1982 C.ar    1  UNL1        0.0402
     15 C          -4.1047   -0.4760   -0.9990 C.ar    1  UNL1        0.0425
     16 N          -5.4321   -0.1752   -0.7578 N.ar    1  UNL1       -0.2551
     17 C          -5.5035    0.6878    0.2274 C.ar    1  UNL1        0.0652
     18 S          -4.0138    1.1776    0.9066 S.2     1  UNL1       -0.0754
     19 H           5.3364   -1.4782   -1.4089 H       1  UNL1        0.0807
     20 H           5.4854    0.3092    0.6553 H       1  UNL1        0.0654
     21 H           1.1004    1.9759    2.2250 H       1  UNL1        0.0836
     22 H          -1.2858    1.4408    1.4233 H       1  UNL1        0.0631
     23 H          -1.5854   -1.3796   -1.8390 H       1  UNL1        0.0836
     24 H           2.8758   -1.7652   -1.9316 H       1  UNL1        0.1654
     25 H          -3.8859   -1.1813   -1.7916 H       1  UNL1        0.0841
     26 H          -6.4479    1.0703    0.5925 H       1  UNL1        0.0907
@<TRIPOS>BOND
     1     1     2   ar
     2     2     3   ar
     3     3     4   ar
     4     4     5   ar
     5     5     6   ar
     6     6     7   ar
     7     7     8   ar
     8     8     9   ar
     9     9    10   ar
    10    10    11   ar
    11    11    12   ar
    12    12    13   ar
    13     8    14    1
    14    14    15   ar
    15    15    16   ar
    16    16    17   ar
    17    17    18   ar
    18    13     1   ar
    19    18    14   ar
    20    12     3   ar
    21    11     6   ar
    22     1    19    1
    23     2    20    1
    24     5    21    1
    25     7    22    1
    26     9    23    1
    27    13    24    1
    28    15    25    1
    29    17    26    1
