@<TRIPOS>MOLECULE
*****
 42 48 0 0 0
SMALL
GASTEIGER

@<TRIPOS>ATOM
      1 SI          1.2863    1.1773    0.3327 Si      1  UNL1        0.0000
      2 C           2.7015   -0.0988    0.1543 C.2     1  UNL1        0.0000
      3 C           2.1867   -1.3398   -0.0236 C.2     1  UNL1        0.0000
      4 C           0.7241   -1.4055   -0.0363 C.ar    1  UNL1        0.0000
      5 C          -0.0170   -0.1970    0.1339 C.ar    1  UNL1        0.0000
      6 C          -1.4576   -0.0928    0.1452 C.ar    1  UNL1        0.0000
      7 C          -2.1393    1.1325    0.3178 C.ar    1  UNL1        0.0000
      8 C          -3.5457    1.2316    0.3284 C.ar    1  UNL1        0.0000
      9 C          -4.1891    2.4686    0.5027 C.ar    1  UNL1        0.0000
     10 C          -5.5821    2.5576    0.5118 C.ar    1  UNL1        0.0000
     11 C          -6.3518    1.4110    0.3467 C.ar    1  UNL1        0.0000
     12 C          -5.7290    0.1746    0.1724 C.ar    1  UNL1        0.0000
     13 C          -4.3279    0.0709    0.1613 C.ar    1  UNL1        0.0000
     14 C          -3.6899   -1.1632   -0.0126 C.ar    1  UNL1        0.0000
     15 C          -2.2758   -1.2579   -0.0226 C.ar    1  UNL1        0.0000
     16 C          -1.5283   -2.4672   -0.1928 C.ar    1  UNL1        0.0000
     17 C          -2.0879   -3.7125   -0.3713 C.ar    1  UNL1        0.0000
     18 S          -0.8955   -4.9373   -0.5427 S.2     1  UNL1        0.0000
     19 C           0.3883   -3.8097   -0.3791 C.ar    1  UNL1        0.0000
     20 C          -0.0817   -2.5307   -0.1983 C.ar    1  UNL1        0.0000
     21 C           4.1387    0.2341    0.2051 C.ar    1  UNL1        0.0000
     22 C           5.1647   -0.7238    0.0723 C.ar    1  UNL1        0.0000
     23 N           6.5298   -0.5497    0.1003 N.ar    1  UNL1        0.0000
     24 C           7.0623    0.6877    0.2765 C.ar    1  UNL1        0.0000
     25 C           6.1778    1.7699    0.4273 C.ar    1  UNL1        0.0000
     26 N           6.5287    3.0531    0.6095 N.ar    1  UNL1        0.0000
     27 S           5.1188    3.9117    0.7272 S.2     1  UNL1        0.0000
     28 N           4.0074    2.6986    0.5530 N.ar    1  UNL1        0.0000
     29 C           4.6782    1.5423    0.3913 C.ar    1  UNL1        0.0000
     30 H           1.2220    2.1281   -0.8075 H       1  UNL1        0.0000
     31 H           1.2163    1.7721    1.6926 H       1  UNL1        0.0000
     32 H           2.7628   -2.2448   -0.1511 H       1  UNL1        0.0000
     33 H          -1.5727    2.0519    0.4501 H       1  UNL1        0.0000
     34 H          -3.6066    3.3780    0.6335 H       1  UNL1        0.0000
     35 H          -6.0639    3.5223    0.6478 H       1  UNL1        0.0000
     36 H          -7.4366    1.4771    0.3534 H       1  UNL1        0.0000
     37 H          -6.3478   -0.7109    0.0450 H       1  UNL1        0.0000
     38 H          -4.2954   -2.0558   -0.1412 H       1  UNL1        0.0000
     39 H          -3.1293   -3.9959   -0.4142 H       1  UNL1        0.0000
     40 H           1.4075   -4.1648   -0.4272 H       1  UNL1        0.0000
     41 H           4.9092   -1.7728   -0.0765 H       1  UNL1        0.0000
     42 H           8.1399    0.7803    0.2923 H       1  UNL1        0.0000
@<TRIPOS>BOND
     1     1     2    1
     2     2     3    2
     3     3     4    1
     4     4     5   ar
     5     5     6   ar
     6     6     7   ar
     7     7     8   ar
     8     8     9   ar
     9     9    10   ar
    10    10    11   ar
    11    11    12   ar
    12    12    13   ar
    13    13    14   ar
    14    14    15   ar
    15    15    16   ar
    16    16    17   ar
    17    17    18   ar
    18    18    19   ar
    19    19    20   ar
    20     2    21    1
    21    21    22   ar
    22    22    23   ar
    23    23    24   ar
    24    24    25   ar
    25    25    26   ar
    26    26    27   ar
    27    27    28   ar
    28    28    29   ar
    29     5     1    1
    30    15     6   ar
    31    20    16   ar
    32    29    21   ar
    33    20     4   ar
    34    29    25   ar
    35    13     8   ar
    36     1    30    1
    37     1    31    1
    38     3    32    1
    39     7    33    1
    40     9    34    1
    41    10    35    1
    42    11    36    1
    43    12    37    1
    44    14    38    1
    45    17    39    1
    46    19    40    1
    47    22    41    1
    48    24    42    1
