@<TRIPOS>MOLECULE
*****
 41 47 0 0 0
SMALL
GASTEIGER

@<TRIPOS>ATOM
      1 SI          2.0353   -3.8438    1.1712 Si      1  UNL1        0.0000
      2 C           0.3941   -3.0529    0.8421 C.2     1  UNL1        0.0000
      3 C           0.5365   -1.7604    0.4928 C.ar    1  UNL1        0.0000
      4 C          -0.5190   -0.8692    0.1745 C.ar    1  UNL1        0.0000
      5 C          -1.9213   -0.9776    0.1105 C.ar    1  UNL1        0.0000
      6 C          -2.4051    0.2719   -0.2692 C.ar    1  UNL1        0.0000
      7 O          -1.3322    1.1260   -0.4345 O.2     1  UNL1        0.0000
      8 C          -0.2096    0.4191   -0.1627 C.ar    1  UNL1        0.0000
      9 C           1.1067    1.0310   -0.2444 C.ar    1  UNL1        0.0000
     10 C           1.2365    2.3826   -0.6110 C.ar    1  UNL1        0.0000
     11 C           2.4902    2.9741   -0.6910 C.ar    1  UNL1        0.0000
     12 C           3.6119    2.2084   -0.4028 C.ar    1  UNL1        0.0000
     13 C           4.9755    2.7671   -0.4660 C.2     1  UNL1        0.0000
     14 C           5.9412    1.8886   -0.1568 C.2     1  UNL1        0.0000
     15 SI          5.2606    0.2106    0.2634 Si      1  UNL1        0.0000
     16 C           3.5014    0.8294   -0.0272 C.ar    1  UNL1        0.0000
     17 C           2.2439    0.2052    0.0614 C.ar    1  UNL1        0.0000
     18 C           1.9519   -1.2384    0.4426 C.ar    1  UNL1        0.0000
     19 C           2.8455   -2.1989    0.7688 C.2     1  UNL1        0.0000
     20 C          -3.7617    0.6925   -0.4772 C.ar    1  UNL1        0.0000
     21 S          -4.1449    2.3293   -0.9590 S.2     1  UNL1        0.0000
     22 C          -5.8522    2.0475   -0.9949 C.ar    1  UNL1        0.0000
     23 C          -6.0570    0.7643   -0.6510 C.ar    1  UNL1        0.0000
     24 O          -7.2639    0.1431   -0.5588 O.2     1  UNL1        0.0000
     25 C          -6.8468   -1.1180   -0.1794 C.ar    1  UNL1        0.0000
     26 C          -5.4581   -1.2479   -0.0501 C.ar    1  UNL1        0.0000
     27 C          -4.9344    0.0219   -0.3689 C.ar    1  UNL1        0.0000
     28 H           2.3777   -4.8914    0.1804 H       1  UNL1        0.0000
     29 H           2.2166   -4.2218    2.5928 H       1  UNL1        0.0000
     30 H          -0.5278   -3.6043    0.9334 H       1  UNL1        0.0000
     31 H          -2.5153   -1.8550    0.3144 H       1  UNL1        0.0000
     32 H           0.3532    2.9769   -0.8355 H       1  UNL1        0.0000
     33 H           2.5797    4.0184   -0.9750 H       1  UNL1        0.0000
     34 H           5.1523    3.7989   -0.7407 H       1  UNL1        0.0000
     35 H           7.0016    2.0878   -0.1406 H       1  UNL1        0.0000
     36 H           5.6790   -0.8228   -0.7173 H       1  UNL1        0.0000
     37 H           5.5173   -0.1571    1.6790 H       1  UNL1        0.0000
     38 H           3.9144   -2.1649    0.8305 H       1  UNL1        0.0000
     39 H          -6.5810    2.8012   -1.2538 H       1  UNL1        0.0000
     40 H          -7.6564   -1.8222   -0.0374 H       1  UNL1        0.0000
     41 H          -4.9364   -2.1489    0.2360 H       1  UNL1        0.0000
@<TRIPOS>BOND
     1     1     2    1
     2     2     3    2
     3     3     4   ar
     4     4     5   ar
     5     5     6   ar
     6     6     7   ar
     7     7     8   ar
     8     8     9   ar
     9     9    10   ar
    10    10    11   ar
    11    11    12   ar
    12    12    13    1
    13    13    14    2
    14    14    15    1
    15    15    16    1
    16    16    17   ar
    17    17    18   ar
    18    18    19    2
    19     6    20    1
    20    20    21   ar
    21    21    22   ar
    22    22    23   ar
    23    23    24   ar
    24    24    25   ar
    25    25    26   ar
    26    26    27   ar
    27    19     1    1
    28    27    20   ar
    29    18     3   ar
    30    27    23   ar
    31     8     4   ar
    32    17     9   ar
    33    16    12   ar
    34     1    28    1
    35     1    29    1
    36     2    30    1
    37     5    31    1
    38    10    32    1
    39    11    33    1
    40    13    34    1
    41    14    35    1
    42    15    36    1
    43    15    37    1
    44    19    38    1
    45    22    39    1
    46    25    40    1
    47    26    41    1
