@<TRIPOS>MOLECULE
*****
 43 49 0 0 0
SMALL
GASTEIGER

@<TRIPOS>ATOM
      1 C           6.8869   -1.1547   -1.4172 C.ar    1  UNL1        0.0304
      2 C           7.8871   -0.5992   -0.6267 C.ar    1  UNL1       -0.0153
      3 C           7.3927    0.1511    0.4563 C.ar    1  UNL1        0.1034
      4 N           8.1465    0.7678    1.3805 N.ar    1  UNL1       -0.1907
      5 S           7.0927    1.4896    2.4409 S.2     1  UNL1        0.1165
      6 N           5.6378    1.0301    1.7929 N.ar    1  UNL1       -0.1886
      7 C           5.9131    0.3245    0.6799 C.ar    1  UNL1        0.1258
      8 C           5.0031   -0.2700   -0.2353 C.ar    1  UNL1        0.1011
      9 N           5.5326   -1.0305   -1.2523 N.ar    1  UNL1       -0.2526
     10 C           3.5613   -0.1809   -0.1282 C.ar    1  UNL1        0.0307
     11 C           2.7283   -1.3210   -0.0798 C.ar    1  UNL1       -0.0497
     12 C           1.3193   -1.2605    0.0273 C.ar    1  UNL1       -0.0512
     13 C           0.5845   -0.0531    0.0829 C.ar    1  UNL1        0.0103
     14 C          -0.8767   -0.0241    0.2002 C.ar    1  UNL1       -0.0157
     15 C          -1.6724    0.6796   -0.7139 C.ar    1  UNL1       -0.0534
     16 C          -3.0691    0.6883   -0.6048 C.ar    1  UNL1       -0.0533
     17 C          -3.7235   -0.0081    0.4211 C.ar    1  UNL1       -0.0143
     18 C          -2.9264   -0.7134    1.3359 C.ar    1  UNL1       -0.0533
     19 C          -1.5296   -0.7235    1.2256 C.ar    1  UNL1       -0.0534
     20 C          -5.1804    0.0128    0.5541 C.ar    1  UNL1        0.0284
     21 C          -5.8571    0.3013    1.7509 C.ar    1  UNL1        0.0375
     22 N          -7.2124    0.3380    1.9791 N.ar    1  UNL1       -0.2604
     23 C          -8.0912    0.0778    0.9702 C.ar    1  UNL1        0.0557
     24 C          -7.5692   -0.2301   -0.3006 C.ar    1  UNL1        0.1185
     25 N          -8.2785   -0.5147   -1.4049 N.ar    1  UNL1       -0.1892
     26 S          -7.1738   -0.8088   -2.6068 S.2     1  UNL1        0.1165
     27 N          -5.7536   -0.5853   -1.7830 N.ar    1  UNL1       -0.1901
     28 C          -6.0751   -0.2642   -0.5153 C.ar    1  UNL1        0.1105
     29 C           1.3697    1.1387    0.0108 C.ar    1  UNL1        0.1082
     30 N           0.9134    2.4048    0.0387 N.ar    1  UNL1       -0.1901
     31 S           2.2272    3.4010   -0.0896 S.2     1  UNL1        0.1165
     32 N           3.4473    2.2902   -0.1999 N.ar    1  UNL1       -0.1901
     33 C           2.8841    1.0717   -0.1042 C.ar    1  UNL1        0.1097
     34 H           7.1650   -1.7662   -2.2759 H       1  UNL1        0.0830
     35 H           8.9415   -0.7403   -0.8147 H       1  UNL1        0.0655
     36 H           3.1950   -2.3072   -0.1274 H       1  UNL1        0.0625
     37 H           0.7750   -2.2065    0.0534 H       1  UNL1        0.0624
     38 H          -1.2114    1.2339   -1.5298 H       1  UNL1        0.0624
     39 H          -3.6402    1.2560   -1.3378 H       1  UNL1        0.0624
     40 H          -3.3838   -1.2778    2.1467 H       1  UNL1        0.0624
     41 H          -0.9530   -1.2806    1.9618 H       1  UNL1        0.0624
     42 H          -5.2779    0.5442    2.6437 H       1  UNL1        0.0836
     43 H          -9.1485    0.1194    1.1951 H       1  UNL1        0.0852
@<TRIPOS>BOND
     1     1     2   ar
     2     2     3   ar
     3     3     4   ar
     4     4     5   ar
     5     5     6   ar
     6     6     7   ar
     7     7     8   ar
     8     8     9   ar
     9     8    10    1
    10    10    11   ar
    11    11    12   ar
    12    12    13   ar
    13    13    14    1
    14    14    15   ar
    15    15    16   ar
    16    16    17   ar
    17    17    18   ar
    18    18    19   ar
    19    17    20    1
    20    20    21   ar
    21    21    22   ar
    22    22    23   ar
    23    23    24   ar
    24    24    25   ar
    25    25    26   ar
    26    26    27   ar
    27    27    28   ar
    28    13    29   ar
    29    29    30   ar
    30    30    31   ar
    31    31    32   ar
    32    32    33   ar
    33     9     1   ar
    34    33    10   ar
    35     7     3   ar
    36    19    14   ar
    37    28    20   ar
    38    33    29   ar
    39    28    24   ar
    40     1    34    1
    41     2    35    1
    42    11    36    1
    43    12    37    1
    44    15    38    1
    45    16    39    1
    46    18    40    1
    47    19    41    1
    48    21    42    1
    49    23    43    1
