@<TRIPOS>MOLECULE
*****
 28 32 0 0 0
SMALL
GASTEIGER

@<TRIPOS>ATOM
      1 C           5.5056    1.3316    0.1266 C.ar    1  UNL1       -0.0202
      2 C           4.3387    1.9232    0.5683 C.ar    1  UNL1       -0.0117
      3 C           3.2529    1.1148    0.1830 C.ar    1  UNL1        0.1427
      4 O           1.9059    1.2242    0.3508 O.2     1  UNL1       -0.4542
      5 C           1.3739    0.1096   -0.2390 C.ar    1  UNL1        0.1374
      6 C           2.3486   -0.6872   -0.8005 C.ar    1  UNL1       -0.0015
      7 C           3.5572   -0.0125   -0.5016 C.ar    1  UNL1        0.0579
      8 S           5.2682   -0.1547   -0.7280 S.2     1  UNL1       -0.0934
      9 C          -0.0737    0.0292   -0.1742 C.ar    1  UNL1        0.0266
     10 C          -0.8962    1.1599   -0.3894 C.ar    1  UNL1       -0.0361
     11 C          -2.3140    1.0716   -0.3621 C.ar    1  UNL1        0.0206
     12 S          -3.4723    2.3301   -0.6129 S.2     1  UNL1       -0.0966
     13 C          -4.7997    1.2631   -0.3878 C.ar    1  UNL1       -0.0232
     14 C          -4.4033   -0.0312   -0.1249 C.ar    1  UNL1       -0.0464
     15 C          -2.9981   -0.1072   -0.1183 C.ar    1  UNL1       -0.0026
     16 C          -2.2101   -1.2831    0.1250 C.ar    1  UNL1       -0.0020
     17 C          -2.7105   -2.5229    0.4000 C.ar    1  UNL1       -0.0160
     18 S          -1.4018   -3.6085    0.6546 S.2     1  UNL1       -0.1038
     19 C          -0.2263   -2.3695    0.3920 C.ar    1  UNL1       -0.0159
     20 C          -0.7951   -1.1491    0.0852 C.ar    1  UNL1        0.0004
     21 H           6.5156    1.6964    0.2582 H       1  UNL1        0.0695
     22 H           4.2764    2.8522    1.1173 H       1  UNL1        0.0660
     23 H           2.2163   -1.6073   -1.3494 H       1  UNL1        0.0667
     24 H          -0.4324    2.1243   -0.5928 H       1  UNL1        0.0636
     25 H          -5.8093    1.6440   -0.4594 H       1  UNL1        0.0694
     26 H          -5.0995   -0.8415    0.0464 H       1  UNL1        0.0629
     27 H          -3.7327   -2.8646    0.4779 H       1  UNL1        0.0700
     28 H           0.8159   -2.6349    0.4932 H       1  UNL1        0.0700
@<TRIPOS>BOND
     1     1     2   ar
     2     2     3   ar
     3     3     4   ar
     4     4     5   ar
     5     5     6   ar
     6     6     7   ar
     7     7     8   ar
     8     5     9    1
     9     9    10   ar
    10    10    11   ar
    11    11    12   ar
    12    12    13   ar
    13    13    14   ar
    14    14    15   ar
    15    15    16   ar
    16    16    17   ar
    17    17    18   ar
    18    18    19   ar
    19    19    20   ar
    20     8     1   ar
    21    20     9   ar
    22     7     3   ar
    23    15    11   ar
    24    20    16   ar
    25     1    21    1
    26     2    22    1
    27     6    23    1
    28    10    24    1
    29    13    25    1
    30    14    26    1
    31    17    27    1
    32    19    28    1
