@<TRIPOS>MOLECULE
*****
 37 43 0 0 0
SMALL
GASTEIGER

@<TRIPOS>ATOM
      1 C          -6.1657    1.1981    0.1627 C.ar    1  UNL1        0.0058
      2 C          -5.2618    2.2375    0.3190 C.ar    1  UNL1       -0.0013
      3 C          -4.0092    1.6090    0.2135 C.ar    1  UNL1        0.1538
      4 O          -2.6850    1.9796    0.2630 O.2     1  UNL1       -0.4521
      5 C          -2.0042    0.8066    0.0762 C.ar    1  UNL1        0.1526
      6 C          -0.4791    0.5118    0.0209 C.ar    1  UNL1        0.0634
      7 S           0.8061    1.5819    0.1796 S.2     1  UNL1       -0.0845
      8 C           1.9987    0.3263   -0.0232 C.ar    1  UNL1        0.0227
      9 C           1.3632   -0.9061   -0.2112 C.ar    1  UNL1       -0.0384
     10 C          -0.0326   -0.7685   -0.1811 C.ar    1  UNL1        0.0025
     11 C          -1.0329   -1.7894   -0.3339 C.ar    1  UNL1        0.0085
     12 C          -0.8508   -3.1283   -0.5434 C.ar    1  UNL1        0.0100
     13 N          -2.1237   -3.6784   -0.6212 N.ar    1  UNL1       -0.3659
     14 C          -3.0940   -2.6976   -0.4626 C.ar    1  UNL1        0.0102
     15 C          -2.4074   -1.5313   -0.2852 C.ar    1  UNL1        0.0128
     16 C          -2.8775   -0.2278   -0.0794 C.ar    1  UNL1        0.0544
     17 C          -4.1588    0.2704    0.0060 C.ar    1  UNL1        0.0935
     18 N          -5.4976    0.0034   -0.0273 N.ar    1  UNL1       -0.3576
     19 C           3.4563    0.5989    0.0102 C.ar    1  UNL1        0.0169
     20 C           4.4037   -0.4507   -0.1589 C.ar    1  UNL1       -0.0513
     21 C           5.8100   -0.2858   -0.1418 C.ar    1  UNL1       -0.0590
     22 C           6.4257    0.9546    0.0473 C.ar    1  UNL1       -0.0335
     23 C           5.5589    2.0559    0.2240 C.ar    1  UNL1        0.1005
     24 N           5.9658    3.3198    0.4182 N.ar    1  UNL1       -0.1908
     25 S           4.5948    4.2350    0.5689 S.2     1  UNL1        0.1165
     26 N           3.4323    3.0753    0.3957 N.ar    1  UNL1       -0.1902
     27 C           4.0445    1.8922    0.2078 C.ar    1  UNL1        0.1080
     28 H          -7.2482    1.2075    0.1709 H       1  UNL1        0.0808
     29 H          -5.4777    3.2829    0.4831 H       1  UNL1        0.0669
     30 H           1.8806   -1.8433   -0.3603 H       1  UNL1        0.0635
     31 H           0.0265   -3.7514   -0.6458 H       1  UNL1        0.0813
     32 H          -2.3170   -4.6601   -0.7729 H       1  UNL1        0.1648
     33 H          -4.1443   -2.9486   -0.4952 H       1  UNL1        0.0813
     34 H          -5.8908   -0.9187   -0.1685 H       1  UNL1        0.1654
     35 H           4.0488   -1.4693   -0.3152 H       1  UNL1        0.0624
     36 H           6.4396   -1.1650   -0.2825 H       1  UNL1        0.0618
     37 H           7.5025    1.0730    0.0591 H       1  UNL1        0.0640
@<TRIPOS>BOND
     1     1     2   ar
     2     2     3   ar
     3     3     4   ar
     4     4     5   ar
     5     5     6   ar
     6     6     7   ar
     7     7     8   ar
     8     8     9   ar
     9     9    10   ar
    10    10    11   ar
    11    11    12   ar
    12    12    13   ar
    13    13    14   ar
    14    14    15   ar
    15    15    16   ar
    16    16    17   ar
    17    17    18   ar
    18     8    19    1
    19    19    20   ar
    20    20    21   ar
    21    21    22   ar
    22    22    23   ar
    23    23    24   ar
    24    24    25   ar
    25    25    26   ar
    26    26    27   ar
    27    18     1   ar
    28    27    19   ar
    29    17     3   ar
    30    27    23   ar
    31    16     5   ar
    32    10     6   ar
    33    15    11   ar
    34     1    28    1
    35     2    29    1
    36     9    30    1
    37    12    31    1
    38    13    32    1
    39    14    33    1
    40    18    34    1
    41    20    35    1
    42    21    36    1
    43    22    37    1
