@<TRIPOS>MOLECULE
*****
 45 52 0 0 0
SMALL
GASTEIGER

@<TRIPOS>ATOM
      1 C          -6.7325    0.2004    0.7464 C.ar    1  UNL1        0.0033
      2 C          -6.2334   -1.0743    0.8957 C.ar    1  UNL1       -0.0300
      3 C          -4.8343   -0.9647    0.6541 C.ar    1  UNL1        0.0380
      4 S          -3.4316   -1.9780    0.6127 S.2     1  UNL1       -0.0860
      5 C          -2.3597   -0.6383    0.2042 C.ar    1  UNL1        0.0308
      6 C          -3.1717    0.4878    0.1300 C.ar    1  UNL1        0.0228
      7 C          -2.6233    1.7553   -0.1858 C.ar    1  UNL1        0.0102
      8 C          -3.1754    2.9955   -0.3216 C.ar    1  UNL1        0.0101
      9 N          -2.1192    3.8234   -0.6395 N.ar    1  UNL1       -0.3659
     10 C          -0.9465    3.0941   -0.6953 C.ar    1  UNL1        0.0100
     11 C          -1.2430    1.7758   -0.4099 C.ar    1  UNL1        0.0078
     12 C          -0.3394    0.6875   -0.3575 C.ar    1  UNL1       -0.0065
     13 C           1.0295    0.8615   -0.6088 C.ar    1  UNL1       -0.0445
     14 C           1.9106   -0.2171   -0.5545 C.ar    1  UNL1       -0.0019
     15 C           3.3172    0.0697   -0.8241 C.ar    1  UNL1        0.0342
     16 S           3.9640    0.0991   -2.4199 S.2     1  UNL1       -0.0949
     17 C           5.5501    0.4935   -1.8678 C.ar    1  UNL1       -0.0155
     18 C           5.5098    0.5932   -0.5200 C.ar    1  UNL1       -0.0032
     19 C           6.4838    0.8919    0.4627 C.ar    1  UNL1       -0.0465
     20 C           5.9537    0.8797    1.7585 C.ar    1  UNL1       -0.0231
     21 S           4.2388    0.5088    1.8983 S.2     1  UNL1       -0.0955
     22 C           4.2808    0.3676    0.1002 C.ar    1  UNL1        0.0341
     23 C           1.4366   -1.5146   -0.2408 C.ar    1  UNL1       -0.0090
     24 C           2.3376   -2.6106   -0.1861 C.ar    1  UNL1       -0.0534
     25 C           1.9285   -3.9023    0.1190 C.ar    1  UNL1       -0.0611
     26 C           0.5967   -4.1326    0.3791 C.ar    1  UNL1       -0.0611
     27 C          -0.3132   -3.0709    0.3306 C.ar    1  UNL1       -0.0534
     28 C           0.0427   -1.7287    0.0235 C.ar    1  UNL1       -0.0085
     29 C          -0.8943   -0.6016   -0.0341 C.ar    1  UNL1        0.0049
     30 C          -4.5416    0.3355    0.3747 C.ar    1  UNL1        0.0621
     31 N          -5.7102    1.0562    0.4308 N.ar    1  UNL1       -0.3597
     32 H          -7.7440    0.5741    0.8399 H       1  UNL1        0.0807
     33 H          -6.7903   -1.9671    1.1441 H       1  UNL1        0.0644
     34 H          -4.1725    3.3967   -0.2350 H       1  UNL1        0.0813
     35 H          -2.1891    4.8189   -0.8077 H       1  UNL1        0.1648
     36 H          -0.0208    3.5991   -0.9341 H       1  UNL1        0.0813
     37 H           1.4241    1.8456   -0.8484 H       1  UNL1        0.0630
     38 H           6.3731    0.6232   -2.5561 H       1  UNL1        0.0700
     39 H           7.5261    1.1089    0.2632 H       1  UNL1        0.0629
     40 H           6.4882    1.0744    2.6784 H       1  UNL1        0.0694
     41 H           3.3985   -2.4702   -0.3854 H       1  UNL1        0.0624
     42 H           2.6486   -4.7144    0.1520 H       1  UNL1        0.0618
     43 H           0.2491   -5.1333    0.6218 H       1  UNL1        0.0618
     44 H          -1.3326   -3.3498    0.5504 H       1  UNL1        0.0624
     45 H          -5.7695    2.0508    0.2620 H       1  UNL1        0.1654
@<TRIPOS>BOND
     1     1     2   ar
     2     2     3   ar
     3     3     4   ar
     4     4     5   ar
     5     5     6   ar
     6     6     7   ar
     7     7     8   ar
     8     8     9   ar
     9     9    10   ar
    10    10    11   ar
    11    11    12   ar
    12    12    13   ar
    13    13    14   ar
    14    14    15    1
    15    15    16   ar
    16    16    17   ar
    17    17    18   ar
    18    18    19   ar
    19    19    20   ar
    20    20    21   ar
    21    21    22   ar
    22    14    23   ar
    23    23    24   ar
    24    24    25   ar
    25    25    26   ar
    26    26    27   ar
    27    27    28   ar
    28    28    29   ar
    29     6    30   ar
    30    30    31   ar
    31    31     1   ar
    32    30     3   ar
    33    29     5   ar
    34    11     7   ar
    35    29    12   ar
    36    22    15   ar
    37    28    23   ar
    38    22    18   ar
    39     1    32    1
    40     2    33    1
    41     8    34    1
    42     9    35    1
    43    10    36    1
    44    13    37    1
    45    17    38    1
    46    19    39    1
    47    20    40    1
    48    24    41    1
    49    25    42    1
    50    26    43    1
    51    27    44    1
    52    31    45    1
