@<TRIPOS>MOLECULE
*****
 36 41 0 0 0
SMALL
GASTEIGER

@<TRIPOS>ATOM
      1 C          -6.3617    0.4021    0.4332 C.ar    1  UNL1        0.0937
      2 C          -5.8648    0.7603    1.6625 C.ar    1  UNL1       -0.0095
      3 C          -4.4620    0.6320    1.5031 C.ar    1  UNL1        0.0585
      4 S          -2.9794    0.8323    2.4042 S.2     1  UNL1       -0.0828
      5 C          -2.0154    0.3436    1.0193 C.ar    1  UNL1        0.0501
      6 C          -2.8702    0.0619   -0.0298 C.ar    1  UNL1        0.0433
      7 C          -2.3610   -0.3590   -1.2796 C.ar    1  UNL1        0.0119
      8 C          -2.9719   -0.6922   -2.4493 C.ar    1  UNL1        0.0101
      9 N          -1.9399   -1.0185   -3.3051 N.ar    1  UNL1       -0.3659
     10 C          -0.7183   -0.8843   -2.6607 C.ar    1  UNL1        0.0101
     11 C          -0.9633   -0.4656   -1.3708 C.ar    1  UNL1        0.0093
     12 C          -0.0082   -0.2008   -0.3580 C.ar    1  UNL1        0.0113
     13 C           1.4003   -0.3028   -0.4325 C.ar    1  UNL1       -0.0413
     14 C           2.1967    0.0028    0.6825 C.ar    1  UNL1        0.0190
     15 C           1.4933    0.4025    1.8305 C.ar    1  UNL1        0.0375
     16 N           0.1407    0.5169    1.9544 N.ar    1  UNL1       -0.2532
     17 C          -0.5981    0.2165    0.8662 C.ar    1  UNL1        0.0860
     18 C           3.6764   -0.0784    0.6866 C.ar    1  UNL1        0.0724
     19 C           4.4422   -0.4670   -0.4148 C.ar    1  UNL1       -0.0356
     20 C           5.8336   -0.5118   -0.3102 C.ar    1  UNL1       -0.0583
     21 C           6.4396   -0.1692    0.8885 C.ar    1  UNL1       -0.0436
     22 C           5.6242    0.2057    1.9374 C.ar    1  UNL1        0.0283
     23 N           4.2755    0.2566    1.8598 N.ar    1  UNL1       -0.2549
     24 C          -4.2196    0.2193    0.2317 C.ar    1  UNL1        0.1502
     25 O          -5.3873    0.0685   -0.4560 O.2     1  UNL1       -0.4617
     26 H          -7.3680    0.3352    0.0415 H       1  UNL1        0.1030
     27 H          -6.4194    1.0658    2.5367 H       1  UNL1        0.0660
     28 H          -4.0061   -0.7334   -2.7642 H       1  UNL1        0.0813
     29 H          -2.0579   -1.3136   -4.2659 H       1  UNL1        0.1648
     30 H           0.1955   -1.1032   -3.1955 H       1  UNL1        0.0813
     31 H           1.8409   -0.6218   -1.3700 H       1  UNL1        0.0631
     32 H           2.0284    0.6596    2.7442 H       1  UNL1        0.0836
     33 H           3.9897   -0.7388   -1.3607 H       1  UNL1        0.0639
     34 H           6.4363   -0.8131   -1.1626 H       1  UNL1        0.0619
     35 H           7.5172   -0.1934    1.0028 H       1  UNL1        0.0633
     36 H           6.0420    0.4848    2.9005 H       1  UNL1        0.0830
@<TRIPOS>BOND
     1     1     2   ar
     2     2     3   ar
     3     3     4   ar
     4     4     5   ar
     5     5     6   ar
     6     6     7   ar
     7     7     8   ar
     8     8     9   ar
     9     9    10   ar
    10    10    11   ar
    11    11    12   ar
    12    12    13   ar
    13    13    14   ar
    14    14    15   ar
    15    15    16   ar
    16    16    17   ar
    17    14    18    1
    18    18    19   ar
    19    19    20   ar
    20    20    21   ar
    21    21    22   ar
    22    22    23   ar
    23     6    24   ar
    24    24    25   ar
    25    25     1   ar
    26    24     3   ar
    27    17     5   ar
    28    23    18   ar
    29    11     7   ar
    30    17    12   ar
    31     1    26    1
    32     2    27    1
    33     8    28    1
    34     9    29    1
    35    10    30    1
    36    13    31    1
    37    15    32    1
    38    19    33    1
    39    20    34    1
    40    21    35    1
    41    22    36    1
