@<TRIPOS>MOLECULE
*****
 42 48 0 0 0
SMALL
GASTEIGER

@<TRIPOS>ATOM
      1 C           6.6836    0.3565    0.1324 C.ar    1  UNL1        0.0033
      2 C           6.1150    1.5006   -0.3828 C.ar    1  UNL1       -0.0300
      3 C           4.7091    1.2762   -0.3472 C.ar    1  UNL1        0.0380
      4 S           3.2381    2.1044   -0.7655 S.2     1  UNL1       -0.0860
      5 C           2.2540    0.7621   -0.2330 C.ar    1  UNL1        0.0309
      6 C           3.1111   -0.2264    0.2282 C.ar    1  UNL1        0.0244
      7 C           2.5928   -1.4474    0.7302 C.ar    1  UNL1        0.0306
      8 C           3.1746   -2.5677    1.2364 C.ar    1  UNL1        0.1001
      9 O           2.1730   -3.4427    1.5695 O.2     1  UNL1       -0.4698
     10 C           0.9806   -2.8395    1.2596 C.ar    1  UNL1        0.1000
     11 C           1.1945   -1.5859    0.7296 C.ar    1  UNL1        0.0283
     12 C           0.2174   -0.6659    0.2922 C.ar    1  UNL1       -0.0048
     13 C          -1.2123   -0.9131    0.3373 C.ar    1  UNL1       -0.0449
     14 C          -2.1900    0.0123   -0.0957 C.ar    1  UNL1       -0.0081
     15 C          -3.6255   -0.2355   -0.0426 C.ar    1  UNL1       -0.0172
     16 C          -4.4627    0.5269    0.7872 C.ar    1  UNL1       -0.0540
     17 C          -5.8359    0.2770    0.8468 C.ar    1  UNL1       -0.0612
     18 C          -6.3924   -0.7427    0.0783 C.ar    1  UNL1       -0.0617
     19 C          -5.5772   -1.5129   -0.7477 C.ar    1  UNL1       -0.0612
     20 C          -4.2038   -1.2622   -0.8054 C.ar    1  UNL1       -0.0540
     21 C          -1.5879    1.1822   -0.5773 C.ar    1  UNL1        0.0077
     22 C          -2.2451    2.2690   -1.1042 C.ar    1  UNL1        0.0100
     23 N          -1.2920    3.1892   -1.4629 N.ar    1  UNL1       -0.3659
     24 C          -0.0336    2.7023   -1.1831 C.ar    1  UNL1        0.0100
     25 C          -0.1700    1.4475   -0.6345 C.ar    1  UNL1        0.0088
     26 C           0.8356    0.5586   -0.2068 C.ar    1  UNL1        0.0063
     27 C           4.4833    0.0345    0.1756 C.ar    1  UNL1        0.0621
     28 N           5.6985   -0.5338    0.4718 N.ar    1  UNL1       -0.3597
     29 H           7.7236    0.0992    0.2876 H       1  UNL1        0.0807
     30 H           6.6319    2.3813   -0.7382 H       1  UNL1        0.0644
     31 H           4.1757   -2.9189    1.4304 H       1  UNL1        0.1036
     32 H           0.1044   -3.4336    1.4783 H       1  UNL1        0.1036
     33 H          -1.5659   -1.8631    0.7376 H       1  UNL1        0.0630
     34 H          -4.0416    1.3224    1.3993 H       1  UNL1        0.0624
     35 H          -6.4682    0.8778    1.4951 H       1  UNL1        0.0618
     36 H          -7.4606   -0.9376    0.1238 H       1  UNL1        0.0618
     37 H          -6.0084   -2.3087   -1.3493 H       1  UNL1        0.0618
     38 H          -3.5825   -1.8693   -1.4608 H       1  UNL1        0.0624
     39 H          -3.2951    2.4753   -1.2632 H       1  UNL1        0.0813
     40 H          -1.4829    4.0908   -1.8806 H       1  UNL1        0.1648
     41 H           0.8223    3.3160   -1.4184 H       1  UNL1        0.0813
     42 H           5.8145   -1.4550    0.8721 H       1  UNL1        0.1654
@<TRIPOS>BOND
     1     1     2   ar
     2     2     3   ar
     3     3     4   ar
     4     4     5   ar
     5     5     6   ar
     6     6     7   ar
     7     7     8   ar
     8     8     9   ar
     9     9    10   ar
    10    10    11   ar
    11    11    12   ar
    12    12    13   ar
    13    13    14   ar
    14    14    15    1
    15    15    16   ar
    16    16    17   ar
    17    17    18   ar
    18    18    19   ar
    19    19    20   ar
    20    14    21   ar
    21    21    22   ar
    22    22    23   ar
    23    23    24   ar
    24    24    25   ar
    25    25    26   ar
    26     6    27   ar
    27    27    28   ar
    28    28     1   ar
    29    27     3   ar
    30    26     5   ar
    31    11     7   ar
    32    26    12   ar
    33    20    15   ar
    34    25    21   ar
    35     1    29    1
    36     2    30    1
    37     8    31    1
    38    10    32    1
    39    13    33    1
    40    16    34    1
    41    17    35    1
    42    18    36    1
    43    19    37    1
    44    20    38    1
    45    22    39    1
    46    23    40    1
    47    24    41    1
    48    28    42    1
