@<TRIPOS>MOLECULE
*****
 33 38 0 0 0
SMALL
GASTEIGER

@<TRIPOS>ATOM
      1 C          -5.7559    2.0951    0.0399 C.ar    1  UNL1        0.0033
      2 C          -4.6351    2.8963    0.0875 C.ar    1  UNL1       -0.0300
      3 C          -3.5249    2.0042    0.0566 C.ar    1  UNL1        0.0381
      4 S          -1.7916    2.0576    0.0752 S.2     1  UNL1       -0.0846
      5 C          -1.7622    0.3623   -0.0030 C.ar    1  UNL1        0.0458
      6 C          -2.9901   -0.2728   -0.0439 C.ar    1  UNL1        0.0151
      7 C          -3.0042   -1.6884   -0.1095 C.ar    1  UNL1       -0.0508
      8 C          -1.8132   -2.4712   -0.1346 C.ar    1  UNL1       -0.0519
      9 C          -0.5363   -1.8789   -0.0953 C.ar    1  UNL1        0.0014
     10 C           0.8104   -2.3299   -0.1036 C.ar    1  UNL1       -0.0280
     11 C           1.6426   -1.2204   -0.0445 C.ar    1  UNL1        0.0578
     12 N           0.8262   -0.1086   -0.0006 N.ar    1  UNL1       -0.3528
     13 C          -0.4748   -0.5047   -0.0311 C.ar    1  UNL1        0.0615
     14 C           3.0696   -1.1255   -0.0267 C.ar    1  UNL1        0.0783
     15 S           4.1541   -2.4805   -0.0793 S.2     1  UNL1       -0.0909
     16 C           5.5837   -1.4873   -0.0200 C.ar    1  UNL1       -0.0128
     17 C           5.1833   -0.2001    0.0359 C.ar    1  UNL1        0.0278
     18 C           5.7161    1.0966    0.1009 C.ar    1  UNL1       -0.0156
     19 C           4.6009    1.9444    0.1298 C.ar    1  UNL1        0.0932
     20 O           3.3847    1.2863    0.0879 O.2     1  UNL1       -0.4617
     21 C           3.8234   -0.0054    0.0322 C.ar    1  UNL1        0.1509
     22 C          -4.0062    0.7257   -0.0071 C.ar    1  UNL1        0.0615
     23 N          -5.3791    0.7792   -0.0175 N.ar    1  UNL1       -0.3597
     24 H          -6.8059    2.3583    0.0423 H       1  UNL1        0.0807
     25 H          -4.6094    3.9761    0.1377 H       1  UNL1        0.0644
     26 H          -3.9598   -2.2081   -0.1425 H       1  UNL1        0.0625
     27 H          -1.8985   -3.5546   -0.1856 H       1  UNL1        0.0624
     28 H           1.1354   -3.3612   -0.1483 H       1  UNL1        0.0645
     29 H           1.1515    0.8493    0.0468 H       1  UNL1        0.1660
     30 H           6.5729   -1.9218   -0.0309 H       1  UNL1        0.0701
     31 H           6.7510    1.4063    0.1249 H       1  UNL1        0.0655
     32 H           4.5135    3.0222    0.1789 H       1  UNL1        0.1030
     33 H          -5.9723   -0.0405   -0.0610 H       1  UNL1        0.1654
@<TRIPOS>BOND
     1     1     2   ar
     2     2     3   ar
     3     3     4   ar
     4     4     5   ar
     5     5     6   ar
     6     6     7   ar
     7     7     8   ar
     8     8     9   ar
     9     9    10   ar
    10    10    11   ar
    11    11    12   ar
    12    12    13   ar
    13    11    14    1
    14    14    15   ar
    15    15    16   ar
    16    16    17   ar
    17    17    18   ar
    18    18    19   ar
    19    19    20   ar
    20    20    21   ar
    21     6    22   ar
    22    22    23   ar
    23    23     1   ar
    24    22     3   ar
    25    13     5   ar
    26    21    14   ar
    27    13     9   ar
    28    21    17   ar
    29     1    24    1
    30     2    25    1
    31     7    26    1
    32     8    27    1
    33    10    28    1
    34    12    29    1
    35    16    30    1
    36    18    31    1
    37    19    32    1
    38    23    33    1
