@<TRIPOS>MOLECULE
*****
 40 46 0 0 0
SMALL
GASTEIGER

@<TRIPOS>ATOM
      1 C           6.8838   -1.0705    0.3218 C.ar    1  UNL1        0.0937
      2 C           6.5366    0.0080   -0.4522 C.ar    1  UNL1       -0.0095
      3 C           5.1298    0.0802   -0.3035 C.ar    1  UNL1        0.0585
      4 S           3.7779    1.0033   -0.8119 S.2     1  UNL1       -0.0843
      5 C           2.6419    0.0066    0.1094 C.ar    1  UNL1        0.0318
      6 C           3.3512   -1.0071    0.7856 C.ar    1  UNL1        0.0327
      7 C           2.6749   -1.9307    1.5939 C.ar    1  UNL1       -0.0494
      8 C           1.3005   -1.8366    1.7249 C.ar    1  UNL1       -0.0533
      9 C           0.5767   -0.8441    1.0670 C.ar    1  UNL1       -0.0156
     10 C          -0.7989   -0.8464    1.2733 C.ar    1  UNL1       -0.0452
     11 C          -1.6390    0.0952    0.6756 C.ar    1  UNL1       -0.0024
     12 C          -3.0726   -0.0278    0.9513 C.ar    1  UNL1        0.0282
     13 S          -3.7437    0.5939    2.4151 S.2     1  UNL1       -0.0949
     14 C          -5.3444    0.0892    2.0115 C.ar    1  UNL1       -0.0094
     15 C          -5.3546   -0.5370    0.7978 C.ar    1  UNL1        0.0269
     16 S          -6.6986   -1.2735   -0.1463 S.2     1  UNL1       -0.0961
     17 C          -5.4540   -1.6510   -1.3330 C.ar    1  UNL1       -0.0231
     18 C          -4.1519   -1.2452   -1.0168 C.ar    1  UNL1       -0.0459
     19 C          -4.0797   -0.5869    0.2376 C.ar    1  UNL1        0.0040
     20 C          -1.1049    1.0890   -0.1746 C.ar    1  UNL1       -0.0090
     21 C          -1.9566    2.0499   -0.7815 C.ar    1  UNL1       -0.0534
     22 C          -1.4802    3.0407   -1.6296 C.ar    1  UNL1       -0.0611
     23 C          -0.1303    3.0952   -1.8925 C.ar    1  UNL1       -0.0611
     24 C           0.7297    2.1625   -1.3020 C.ar    1  UNL1       -0.0534
     25 C           0.3034    1.1277   -0.4226 C.ar    1  UNL1       -0.0085
     26 C           1.1810    0.1359    0.2191 C.ar    1  UNL1        0.0043
     27 C           4.7351   -0.9132    0.5126 C.ar    1  UNL1        0.1495
     28 O           5.8103   -1.6513    0.9212 O.2     1  UNL1       -0.4618
     29 H           7.8328   -1.5407    0.5439 H       1  UNL1        0.1030
     30 H           7.1894    0.6430   -1.0318 H       1  UNL1        0.0660
     31 H           3.2244   -2.7113    2.1147 H       1  UNL1        0.0625
     32 H           0.8006   -2.5655    2.3620 H       1  UNL1        0.0624
     33 H          -1.2494   -1.6024    1.9179 H       1  UNL1        0.0630
     34 H          -6.1885    0.2668    2.6634 H       1  UNL1        0.0705
     35 H          -5.7703   -2.1694   -2.2280 H       1  UNL1        0.0694
     36 H          -3.3091   -1.4230   -1.6743 H       1  UNL1        0.0629
     37 H          -3.0290    2.0419   -0.5939 H       1  UNL1        0.0624
     38 H          -2.1621    3.7588   -2.0753 H       1  UNL1        0.0618
     39 H           0.2699    3.8594   -2.5536 H       1  UNL1        0.0618
     40 H           1.7679    2.2868   -1.5701 H       1  UNL1        0.0624
@<TRIPOS>BOND
     1     1     2   ar
     2     2     3   ar
     3     3     4   ar
     4     4     5   ar
     5     5     6   ar
     6     6     7   ar
     7     7     8   ar
     8     8     9   ar
     9     9    10   ar
    10    10    11   ar
    11    11    12    1
    12    12    13   ar
    13    13    14   ar
    14    14    15   ar
    15    15    16   ar
    16    16    17   ar
    17    17    18   ar
    18    18    19   ar
    19    11    20   ar
    20    20    21   ar
    21    21    22   ar
    22    22    23   ar
    23    23    24   ar
    24    24    25   ar
    25    25    26   ar
    26     6    27   ar
    27    27    28   ar
    28    28     1   ar
    29    27     3   ar
    30    26     5   ar
    31    26     9   ar
    32    19    12   ar
    33    25    20   ar
    34    19    15   ar
    35     1    29    1
    36     2    30    1
    37     7    31    1
    38     8    32    1
    39    10    33    1
    40    14    34    1
    41    17    35    1
    42    18    36    1
    43    21    37    1
    44    22    38    1
    45    23    39    1
    46    24    40    1
