@<TRIPOS>MOLECULE
*****
 39 44 0 0 0
SMALL
GASTEIGER

@<TRIPOS>ATOM
      1 C           7.7246    0.2055    0.5666 C.ar    1  UNL1       -0.0227
      2 C           6.9580   -0.6045    1.3713 C.ar    1  UNL1       -0.0403
      3 C           5.5782   -0.5164    1.0133 C.ar    1  UNL1        0.0276
      4 S           4.1166   -1.2470    1.5970 S.2     1  UNL1       -0.0855
      5 C           3.1717   -0.3895    0.4203 C.ar    1  UNL1        0.0469
      6 C           3.9594    0.4321   -0.3938 C.ar    1  UNL1        0.0056
      7 C           3.3373    1.2017   -1.4075 C.ar    1  UNL1       -0.0517
      8 C           1.9543    1.1422   -1.5935 C.ar    1  UNL1       -0.0519
      9 C           1.1691    0.3227   -0.7817 C.ar    1  UNL1        0.0021
     10 C          -0.2223    0.2277   -0.9267 C.ar    1  UNL1       -0.0433
     11 C          -0.9678   -0.6072   -0.0846 C.ar    1  UNL1        0.0014
     12 C          -0.2663   -1.3268    0.8816 C.ar    1  UNL1        0.0360
     13 N           1.0739   -1.2691    1.0610 N.ar    1  UNL1       -0.2532
     14 C           1.7666   -0.4504    0.2318 C.ar    1  UNL1        0.0853
     15 C          -2.4254   -0.7222   -0.2176 C.ar    1  UNL1       -0.0087
     16 C          -2.9363   -1.6330   -1.1609 C.ar    1  UNL1       -0.0534
     17 C          -4.3073   -1.7925   -1.3326 C.ar    1  UNL1       -0.0606
     18 C          -5.1922   -1.0425   -0.5638 C.ar    1  UNL1       -0.0540
     19 C          -4.7221   -0.1229    0.3851 C.ar    1  UNL1       -0.0173
     20 C          -5.6318    0.6257    1.1505 C.ar    1  UNL1       -0.0540
     21 C          -5.1869    1.5465    2.0977 C.ar    1  UNL1       -0.0612
     22 C          -3.8250    1.7320    2.2917 C.ar    1  UNL1       -0.0611
     23 C          -2.9077    0.9954    1.5387 C.ar    1  UNL1       -0.0534
     24 C          -3.3265    0.0510    0.5710 C.ar    1  UNL1       -0.0101
     25 C           5.3449    0.3363   -0.0260 C.ar    1  UNL1        0.0342
     26 S           6.8256    1.0685   -0.6077 S.2     1  UNL1       -0.0955
     27 H           8.7973    0.3391    0.6086 H       1  UNL1        0.0694
     28 H           7.3515   -1.2237    2.1674 H       1  UNL1        0.0634
     29 H           3.9384    1.8448   -2.0473 H       1  UNL1        0.0624
     30 H           1.5008    1.7435   -2.3787 H       1  UNL1        0.0624
     31 H          -0.7336    0.8072   -1.6929 H       1  UNL1        0.0631
     32 H          -0.7855   -1.9941    1.5661 H       1  UNL1        0.0836
     33 H          -2.2563   -2.2288   -1.7677 H       1  UNL1        0.0624
     34 H          -4.6865   -2.5017   -2.0638 H       1  UNL1        0.0618
     35 H          -6.2612   -1.1822   -0.7120 H       1  UNL1        0.0624
     36 H          -6.7034    0.4959    1.0134 H       1  UNL1        0.0624
     37 H          -5.9043    2.1169    2.6816 H       1  UNL1        0.0618
     38 H          -3.4706    2.4485    3.0282 H       1  UNL1        0.0618
     39 H          -1.8489    1.1713    1.7195 H       1  UNL1        0.0624
@<TRIPOS>BOND
     1     1     2   ar
     2     2     3   ar
     3     3     4   ar
     4     4     5   ar
     5     5     6   ar
     6     6     7   ar
     7     7     8   ar
     8     8     9   ar
     9     9    10   ar
    10    10    11   ar
    11    11    12   ar
    12    12    13   ar
    13    13    14   ar
    14    11    15    1
    15    15    16   ar
    16    16    17   ar
    17    17    18   ar
    18    18    19   ar
    19    19    20   ar
    20    20    21   ar
    21    21    22   ar
    22    22    23   ar
    23    23    24   ar
    24     6    25   ar
    25    25    26   ar
    26    26     1   ar
    27    25     3   ar
    28    14     5   ar
    29    24    15   ar
    30    14     9   ar
    31    24    19   ar
    32     1    27    1
    33     2    28    1
    34     7    29    1
    35     8    30    1
    36    10    31    1
    37    12    32    1
    38    16    33    1
    39    17    34    1
    40    18    35    1
    41    20    36    1
    42    21    37    1
    43    22    38    1
    44    23    39    1
