@<TRIPOS>MOLECULE
*****
 35 40 0 0 0
SMALL
GASTEIGER

@<TRIPOS>ATOM
      1 C           6.8666    0.4813   -0.0137 C.ar    1  UNL1        0.0033
      2 C           6.1016    1.6111   -0.2090 C.ar    1  UNL1       -0.0300
      3 C           4.7503    1.1620   -0.2150 C.ar    1  UNL1        0.0382
      4 S           3.1498    1.8083   -0.3859 S.2     1  UNL1       -0.0829
      5 C           2.5306    0.2449   -0.1993 C.ar    1  UNL1        0.0677
      6 C           3.4449   -0.7727   -0.0124 C.ar    1  UNL1        0.0348
      7 C           2.9630   -2.0849    0.1443 C.ar    1  UNL1        0.0387
      8 N           1.6482   -2.4333    0.1254 N.ar    1  UNL1       -0.2510
      9 C           0.7184   -1.4668   -0.0533 C.ar    1  UNL1        0.1106
     10 C          -0.6890   -1.5238   -0.1213 C.ar    1  UNL1        0.0103
     11 C          -1.1336   -0.2255   -0.3151 C.ar    1  UNL1        0.1385
     12 O          -0.0558    0.6247   -0.3864 O.2     1  UNL1       -0.4521
     13 C           1.0439   -0.1429   -0.2201 C.ar    1  UNL1        0.1681
     14 C          -2.4251    0.4051   -0.4740 C.ar    1  UNL1        0.0265
     15 C          -2.6365    1.6121   -1.1940 C.ar    1  UNL1       -0.0504
     16 C          -3.9194    2.2383   -1.3771 C.ar    1  UNL1       -0.0604
     17 C          -5.1294    1.7303   -0.8572 C.ar    1  UNL1       -0.0526
     18 C          -4.9026    0.5592   -0.1469 C.ar    1  UNL1        0.0001
     19 C          -5.8622   -0.1727    0.5023 C.ar    1  UNL1        0.0094
     20 N          -5.2174   -1.2335    1.0985 N.ar    1  UNL1       -0.3659
     21 C          -3.8625   -1.1801    0.8360 C.ar    1  UNL1        0.0101
     22 C          -3.6346   -0.0793    0.0435 C.ar    1  UNL1        0.0100
     23 C           4.7491   -0.1939   -0.0269 C.ar    1  UNL1        0.0630
     24 N           6.0522   -0.6146    0.0972 N.ar    1  UNL1       -0.3597
     25 H           7.9411    0.3675    0.0564 H       1  UNL1        0.0807
     26 H           6.4581    2.6247   -0.3316 H       1  UNL1        0.0644
     27 H           3.6461   -2.9170    0.2933 H       1  UNL1        0.0837
     28 H          -1.2990   -2.4106   -0.0524 H       1  UNL1        0.0677
     29 H          -1.7738    2.1026   -1.6486 H       1  UNL1        0.0625
     30 H          -3.9535    3.1635   -1.9535 H       1  UNL1        0.0618
     31 H          -6.0873    2.2098   -0.9965 H       1  UNL1        0.0624
     32 H          -6.9304   -0.0428    0.6091 H       1  UNL1        0.0813
     33 H          -5.6687   -1.9423    1.6620 H       1  UNL1        0.1648
     34 H          -3.2086   -1.9299    1.2567 H       1  UNL1        0.0813
     35 H           6.3253   -1.5788    0.2447 H       1  UNL1        0.1654
@<TRIPOS>BOND
     1     1     2   ar
     2     2     3   ar
     3     3     4   ar
     4     4     5   ar
     5     5     6   ar
     6     6     7   ar
     7     7     8   ar
     8     8     9   ar
     9     9    10   ar
    10    10    11   ar
    11    11    12   ar
    12    12    13   ar
    13    11    14    1
    14    14    15   ar
    15    15    16   ar
    16    16    17   ar
    17    17    18   ar
    18    18    19   ar
    19    19    20   ar
    20    20    21   ar
    21    21    22   ar
    22     6    23   ar
    23    23    24   ar
    24    24     1   ar
    25    23     3   ar
    26    13     5   ar
    27    22    14   ar
    28    13     9   ar
    29    22    18   ar
    30     1    25    1
    31     2    26    1
    32     7    27    1
    33    10    28    1
    34    15    29    1
    35    16    30    1
    36    17    31    1
    37    19    32    1
    38    20    33    1
    39    21    34    1
    40    24    35    1
