@<TRIPOS>MOLECULE
*****
 44 50 0 0 0
SMALL
GASTEIGER

@<TRIPOS>ATOM
      1 SI          1.2030    4.4832    1.0354 Si      1  UNL1        0.0000
      2 C          -0.3366    3.4791    0.8040 C.2     1  UNL1        0.0000
      3 C          -0.0550    2.1826    0.5577 C.ar    1  UNL1        0.0000
      4 C          -1.0238    1.1562    0.3349 C.ar    1  UNL1        0.0000
      5 C          -2.4430    1.2952    0.3292 C.ar    1  UNL1        0.0000
      6 C          -3.1161    0.1080    0.0817 C.ar    1  UNL1        0.0000
      7 S          -1.9555   -1.1457   -0.1362 S.2     1  UNL1        0.0000
      8 C          -0.6039   -0.1373    0.0922 C.ar    1  UNL1        0.0000
      9 C           0.8099   -0.5534    0.0439 C.ar    1  UNL1        0.0000
     10 C           1.3115   -1.8455   -0.1966 C.ar    1  UNL1        0.0000
     11 C           0.6467   -3.0259   -0.4427 C.ar    1  UNL1        0.0000
     12 N           1.5793   -4.0247   -0.6158 N.ar    1  UNL1        0.0000
     13 C           2.8427   -3.5083   -0.4853 C.ar    1  UNL1        0.0000
     14 C           2.7052   -2.1645   -0.2261 C.ar    1  UNL1        0.0000
     15 C           3.7544   -1.2460   -0.0221 C.ar    1  UNL1        0.0000
     16 C           5.1289   -1.5804   -0.0551 C.ar    1  UNL1        0.0000
     17 C           6.0673   -0.5915    0.1601 C.ar    1  UNL1        0.0000
     18 C           5.5955    0.6784    0.3970 C.ar    1  UNL1        0.0000
     19 N           4.2815    1.0107    0.4309 N.ar    1  UNL1        0.0000
     20 C           3.3094    0.0875    0.2277 C.ar    1  UNL1        0.0000
     21 C           1.8807    0.4178    0.2585 C.ar    1  UNL1        0.0000
     22 C           1.3994    1.8399    0.5246 C.ar    1  UNL1        0.0000
     23 C           2.1744    2.9251    0.7541 C.2     1  UNL1        0.0000
     24 C          -4.5216   -0.1241    0.0037 C.2     1  UNL1        0.0000
     25 C          -5.4649    0.8317    0.1646 C.2     1  UNL1        0.0000
     26 C          -6.8488    0.3926    0.0475 C.2     1  UNL1        0.0000
     27 C          -7.0165   -0.9164   -0.2075 C.2     1  UNL1        0.0000
     28 SI         -5.3600   -1.7928   -0.3361 Si      1  UNL1        0.0000
     29 H           1.3325    5.0075    2.4167 H       1  UNL1        0.0000
     30 H           1.3894    5.4866   -0.0408 H       1  UNL1        0.0000
     31 H          -1.3091    3.9380    0.8708 H       1  UNL1        0.0000
     32 H          -2.9546    2.2332    0.5005 H       1  UNL1        0.0000
     33 H          -0.3958   -3.2907   -0.5190 H       1  UNL1        0.0000
     34 H           1.3604   -4.9937   -0.8102 H       1  UNL1        0.0000
     35 H           3.7062   -4.1503   -0.5903 H       1  UNL1        0.0000
     36 H           5.4560   -2.5970   -0.2458 H       1  UNL1        0.0000
     37 H           7.1294   -0.8025    0.1440 H       1  UNL1        0.0000
     38 H           6.2789    1.5043    0.5743 H       1  UNL1        0.0000
     39 H           3.2472    2.9896    0.7914 H       1  UNL1        0.0000
     40 H          -5.2620    1.8755    0.3694 H       1  UNL1        0.0000
     41 H          -7.6661    1.0942    0.1626 H       1  UNL1        0.0000
     42 H          -7.9496   -1.4427   -0.3305 H       1  UNL1        0.0000
     43 H          -5.1826   -2.7787    0.7605 H       1  UNL1        0.0000
     44 H          -5.1240   -2.3050   -1.7102 H       1  UNL1        0.0000
@<TRIPOS>BOND
     1     1     2    1
     2     2     3    2
     3     3     4   ar
     4     4     5   ar
     5     5     6   ar
     6     6     7   ar
     7     7     8   ar
     8     8     9   ar
     9     9    10   ar
    10    10    11   ar
    11    11    12   ar
    12    12    13   ar
    13    13    14   ar
    14    14    15   ar
    15    15    16   ar
    16    16    17   ar
    17    17    18   ar
    18    18    19   ar
    19    19    20   ar
    20    20    21   ar
    21    21    22   ar
    22    22    23    2
    23     6    24    1
    24    24    25    2
    25    25    26    1
    26    26    27    2
    27    27    28    1
    28    23     1    1
    29    28    24    1
    30    22     3   ar
    31     8     4   ar
    32    21     9   ar
    33    14    10   ar
    34    20    15   ar
    35     1    29    1
    36     1    30    1
    37     2    31    1
    38     5    32    1
    39    11    33    1
    40    12    34    1
    41    13    35    1
    42    16    36    1
    43    17    37    1
    44    18    38    1
    45    23    39    1
    46    25    40    1
    47    26    41    1
    48    27    42    1
    49    28    43    1
    50    28    44    1
