@<TRIPOS>MOLECULE
*****
 32 37 0 0 0
SMALL
GASTEIGER

@<TRIPOS>ATOM
      1 C           6.9685    0.4201   -0.1153 C.ar    1  UNL1       -0.0226
      2 C           6.1710    0.3314   -1.2483 C.ar    1  UNL1       -0.0403
      3 C           4.8064    0.2110   -0.8678 C.ar    1  UNL1        0.0281
      4 S           3.1810    0.0528   -1.5011 S.2     1  UNL1       -0.0850
      5 C           2.4743    0.0085    0.0107 C.ar    1  UNL1        0.0519
      6 C           1.2211   -0.0988    0.5053 C.ar    1  UNL1        0.0686
      7 N           0.0561   -0.2208   -0.1508 N.ar    1  UNL1       -0.3528
      8 C          -0.9156   -0.2798    0.8389 C.ar    1  UNL1        0.0486
      9 C          -0.3083   -0.2243    2.1014 C.ar    1  UNL1       -0.0220
     10 C           1.0835   -0.0946    1.8636 C.ar    1  UNL1        0.0392
     11 S           2.6934    0.0618    2.4994 S.2     1  UNL1       -0.0850
     12 C           3.4212    0.1091    0.9841 C.ar    1  UNL1        0.0433
     13 C           4.6917    0.2192    0.5055 C.ar    1  UNL1        0.0407
     14 S           6.1095    0.3614    1.3942 S.2     1  UNL1       -0.0950
     15 C          -2.3229   -0.4390    0.5150 C.ar    1  UNL1        0.0065
     16 C          -3.1174   -1.4945    1.0213 C.ar    1  UNL1       -0.0520
     17 C          -4.4990   -1.6815    0.6929 C.ar    1  UNL1       -0.0605
     18 C          -5.2271   -0.8321   -0.1679 C.ar    1  UNL1       -0.0535
     19 C          -4.4437    0.2162   -0.6518 C.ar    1  UNL1       -0.0102
     20 C          -4.9441    1.1784   -1.4936 C.ar    1  UNL1       -0.0166
     21 S          -3.7457    2.3454   -1.8861 S.2     1  UNL1       -0.1039
     22 C          -2.5576    1.5612   -0.9199 C.ar    1  UNL1       -0.0160
     23 C          -3.0488    0.4183   -0.3311 C.ar    1  UNL1       -0.0018
     24 H           8.0454    0.5196   -0.0833 H       1  UNL1        0.0694
     25 H           6.5433    0.3518   -2.2641 H       1  UNL1        0.0634
     26 H          -0.0649   -0.2662   -1.1556 H       1  UNL1        0.1660
     27 H          -0.8118   -0.2645    3.0578 H       1  UNL1        0.0650
     28 H          -2.6557   -2.2201    1.6923 H       1  UNL1        0.0624
     29 H          -5.0163   -2.5336    1.1356 H       1  UNL1        0.0618
     30 H          -6.2716   -0.9915   -0.4007 H       1  UNL1        0.0624
     31 H          -5.9425    1.2747   -1.8975 H       1  UNL1        0.0699
     32 H          -1.5732    2.0003   -0.8414 H       1  UNL1        0.0700
@<TRIPOS>BOND
     1     1     2   ar
     2     2     3   ar
     3     3     4   ar
     4     4     5   ar
     5     5     6   ar
     6     6     7   ar
     7     7     8   ar
     8     8     9   ar
     9     9    10   ar
    10    10    11   ar
    11    11    12   ar
    12    12    13   ar
    13    13    14   ar
    14     8    15    1
    15    15    16   ar
    16    16    17   ar
    17    17    18   ar
    18    18    19   ar
    19    19    20   ar
    20    20    21   ar
    21    21    22   ar
    22    22    23   ar
    23    14     1   ar
    24    23    15   ar
    25    13     3   ar
    26    23    19   ar
    27    12     5   ar
    28    10     6   ar
    29     1    24    1
    30     2    25    1
    31     7    26    1
    32     9    27    1
    33    16    28    1
    34    17    29    1
    35    18    30    1
    36    20    31    1
    37    22    32    1
