@<TRIPOS>MOLECULE
*****
 82 90 0 0 0
SMALL
GASTEIGER

@<TRIPOS>ATOM
      1 C           6.9693   -5.3930    2.4526 C.ar    1  UNL1       -0.0617
      2 C           6.0602   -5.2560    1.4080 C.ar    1  UNL1       -0.0611
      3 C           5.7464   -3.9847    0.9188 C.ar    1  UNL1       -0.0526
      4 C           6.3338   -2.8226    1.4548 C.ar    1  UNL1        0.0005
      5 C           5.9940   -1.4912    0.9100 C.ar    1  UNL1        0.0754
      6 C           6.8983   -0.4475    0.8499 C.ar    1  UNL1       -0.0096
      7 C           6.4588    0.7470    0.3081 C.ar    1  UNL1        0.0754
      8 C           7.3234    1.9417    0.2037 C.ar    1  UNL1        0.0005
      9 C           8.7098    1.8465   -0.0206 C.ar    1  UNL1       -0.0526
     10 C           9.5153    2.9880   -0.0988 C.ar    1  UNL1       -0.0611
     11 C           8.9509    4.2520    0.0412 C.ar    1  UNL1       -0.0617
     12 C           7.5811    4.3762    0.2515 C.ar    1  UNL1       -0.0611
     13 C           6.7787    3.2337    0.3291 C.ar    1  UNL1       -0.0526
     14 N           5.1950    0.8969   -0.1425 N.ar    1  UNL1       -0.2272
     15 C           4.3756   -0.1638   -0.0509 C.ar    1  UNL1        0.1609
     16 C           2.9856   -0.0128   -0.5231 C.ar    1  UNL1        0.0193
     17 C           2.5933    1.0697   -1.3338 C.ar    1  UNL1       -0.0491
     18 C           1.2724    1.2145   -1.7788 C.ar    1  UNL1       -0.0372
     19 C           0.3053    0.2784   -1.4038 C.ar    1  UNL1        0.0472
     20 N          -1.0483    0.4313   -1.8248 N.ar    1  UNL1       -0.3087
     21 C          -1.4648    0.7492   -3.1185 C.ar    1  UNL1        0.0549
     22 C          -0.7428    0.9393   -4.3155 C.ar    1  UNL1       -0.0372
     23 C          -1.4456    1.2260   -5.4894 C.ar    1  UNL1       -0.0598
     24 C          -2.8318    1.3057   -5.4869 C.ar    1  UNL1       -0.0611
     25 C          -3.5487    1.0839   -4.3084 C.ar    1  UNL1       -0.0520
     26 C          -2.8618    0.7897   -3.1098 C.ar    1  UNL1        0.0080
     27 C          -3.2994    0.4936   -1.7853 C.ar    1  UNL1        0.0097
     28 C          -4.5778    0.4015   -1.1875 C.ar    1  UNL1       -0.0302
     29 C          -4.7150    0.1400    0.1884 C.ar    1  UNL1        0.0395
     30 N          -6.0218    0.0598    0.7979 N.pl3   1  UNL1       -0.2692
     31 C          -7.0871   -0.6536    0.1338 C.ar    1  UNL1        0.0388
     32 C          -8.4090   -0.1752    0.1641 C.ar    1  UNL1       -0.0400
     33 C          -9.4416   -0.8685   -0.4724 C.ar    1  UNL1       -0.0600
     34 C          -9.1701   -2.0531   -1.1519 C.ar    1  UNL1       -0.0616
     35 C          -7.8680   -2.5438   -1.1974 C.ar    1  UNL1       -0.0600
     36 C          -6.8357   -1.8501   -0.5607 C.ar    1  UNL1       -0.0400
     37 C          -6.2546    0.6893    2.0763 C.ar    1  UNL1        0.0388
     38 C          -7.0159    0.0505    3.0709 C.ar    1  UNL1       -0.0400
     39 C          -7.2377    0.6602    4.3086 C.ar    1  UNL1       -0.0600
     40 C          -6.7038    1.9197    4.5722 C.ar    1  UNL1       -0.0616
     41 C          -5.9462    2.5696    3.6006 C.ar    1  UNL1       -0.0600
     42 C          -5.7216    1.9587    2.3641 C.ar    1  UNL1       -0.0400
     43 C          -3.5553   -0.0227    0.9544 C.ar    1  UNL1       -0.0380
     44 C          -2.2793    0.0519    0.3847 C.ar    1  UNL1       -0.0355
     45 C          -2.1657    0.2857   -0.9995 C.ar    1  UNL1        0.0550
     46 C           0.6671   -0.8063   -0.6008 C.ar    1  UNL1       -0.0372
     47 C           1.9922   -0.9487   -0.1750 C.ar    1  UNL1       -0.0491
     48 N           4.7321   -1.3554    0.4565 N.ar    1  UNL1       -0.2272
     49 C           7.2394   -2.9900    2.5193 C.ar    1  UNL1       -0.0526
     50 C           7.5558   -4.2614    3.0117 C.ar    1  UNL1       -0.0611
     51 H           7.2138   -6.3805    2.8360 H       1  UNL1        0.0618
     52 H           5.5932   -6.1344    0.9709 H       1  UNL1        0.0618
     53 H           5.0329   -3.9014    0.1002 H       1  UNL1        0.0624
     54 H           7.9100   -0.5607    1.2151 H       1  UNL1        0.0660
     55 H           9.1844    0.8778   -0.1580 H       1  UNL1        0.0624
     56 H          10.5836    2.8873   -0.2747 H       1  UNL1        0.0618
     57 H           9.5761    5.1391   -0.0206 H       1  UNL1        0.0618
     58 H           7.1319    5.3602    0.3551 H       1  UNL1        0.0618
     59 H           5.7088    3.3564    0.4953 H       1  UNL1        0.0624
     60 H           3.3268    1.8216   -1.6240 H       1  UNL1        0.0625
     61 H           1.0148    2.0871   -2.3749 H       1  UNL1        0.0638
     62 H           0.3385    0.8493   -4.3482 H       1  UNL1        0.0638
     63 H          -0.8985    1.3792   -6.4172 H       1  UNL1        0.0618
     64 H          -3.3654    1.5264   -6.4076 H       1  UNL1        0.0618
     65 H          -4.6344    1.1286   -4.3185 H       1  UNL1        0.0624
     66 H          -5.4609    0.5676   -1.7984 H       1  UNL1        0.0643
     67 H          -8.6414    0.7567    0.6744 H       1  UNL1        0.0636
     68 H         -10.4561   -0.4803   -0.4366 H       1  UNL1        0.0618
     69 H          -9.9726   -2.5932   -1.6466 H       1  UNL1        0.0618
     70 H          -7.6521   -3.4692   -1.7250 H       1  UNL1        0.0618
     71 H          -5.8301   -2.2623   -0.5942 H       1  UNL1        0.0636
     72 H          -7.4272   -0.9403    2.8918 H       1  UNL1        0.0636
     73 H          -7.8246    0.1474    5.0662 H       1  UNL1        0.0618
     74 H          -6.8764    2.3944    5.5345 H       1  UNL1        0.0618
     75 H          -5.5312    3.5540    3.8002 H       1  UNL1        0.0618
     76 H          -5.1411    2.4900    1.6130 H       1  UNL1        0.0636
     77 H          -3.6340   -0.2237    2.0211 H       1  UNL1        0.0637
     78 H          -1.4054   -0.0544    1.0202 H       1  UNL1        0.0639
     79 H          -0.0544   -1.5722   -0.3244 H       1  UNL1        0.0638
     80 H           2.2492   -1.8071    0.4455 H       1  UNL1        0.0625
     81 H           7.6992   -2.1283    2.9986 H       1  UNL1        0.0624
     82 H           8.2584   -4.3650    3.8362 H       1  UNL1        0.0618
@<TRIPOS>BOND
     1     1     2   ar
     2     2     3   ar
     3     3     4   ar
     4     4     5    1
     5     5     6   ar
     6     6     7   ar
     7     7     8    1
     8     8     9   ar
     9     9    10   ar
    10    10    11   ar
    11    11    12   ar
    12    12    13   ar
    13     7    14   ar
    14    14    15   ar
    15    15    16    1
    16    16    17   ar
    17    17    18   ar
    18    18    19   ar
    19    19    20    1
    20    20    21   ar
    21    21    22   ar
    22    22    23   ar
    23    23    24   ar
    24    24    25   ar
    25    25    26   ar
    26    26    27   ar
    27    27    28   ar
    28    28    29   ar
    29    29    30    1
    30    30    31    1
    31    31    32   ar
    32    32    33   ar
    33    33    34   ar
    34    34    35   ar
    35    35    36   ar
    36    30    37    1
    37    37    38   ar
    38    38    39   ar
    39    39    40   ar
    40    40    41   ar
    41    41    42   ar
    42    29    43   ar
    43    43    44   ar
    44    44    45   ar
    45    19    46   ar
    46    46    47   ar
    47    15    48   ar
    48     4    49   ar
    49    49    50   ar
    50    50     1   ar
    51    48     5   ar
    52    13     8   ar
    53    47    16   ar
    54    45    20   ar
    55    26    21   ar
    56    45    27   ar
    57    36    31   ar
    58    42    37   ar
    59     1    51    1
    60     2    52    1
    61     3    53    1
    62     6    54    1
    63     9    55    1
    64    10    56    1
    65    11    57    1
    66    12    58    1
    67    13    59    1
    68    17    60    1
    69    18    61    1
    70    22    62    1
    71    23    63    1
    72    24    64    1
    73    25    65    1
    74    28    66    1
    75    32    67    1
    76    33    68    1
    77    34    69    1
    78    35    70    1
    79    36    71    1
    80    38    72    1
    81    39    73    1
    82    40    74    1
    83    41    75    1
    84    42    76    1
    85    43    77    1
    86    44    78    1
    87    46    79    1
    88    47    80    1
    89    49    81    1
    90    50    82    1
