@<TRIPOS>MOLECULE
*****
 37 39 0 0 0
SMALL
GASTEIGER

@<TRIPOS>ATOM
      1 C           5.4460   -0.6589    2.0185 C.ar    1  UNL1       -0.0617
      2 C           4.7887   -1.8140    1.6019 C.ar    1  UNL1       -0.0611
      3 C           3.5814   -1.7209    0.9033 C.ar    1  UNL1       -0.0526
      4 C           3.0181   -0.4701    0.6122 C.ar    1  UNL1       -0.0001
      5 C           1.7586   -0.3585   -0.1181 C.ar    1  UNL1        0.0676
      6 C           0.7364    0.5694   -0.0602 C.ar    1  UNL1        0.0053
      7 C          -0.2323    0.1666   -1.0150 C.ar    1  UNL1        0.1435
      8 N          -1.4057    0.8103   -1.2661 N.pl3   1  UNL1       -0.3138
      9 C          -2.3941    0.1928   -2.1479 C.3     1  UNL1        0.0135
     10 C          -3.1525   -0.9521   -1.4769 C.3     1  UNL1       -0.0372
     11 C          -3.5020   -0.7838    0.0045 C.3     1  UNL1       -0.0516
     12 C          -3.8762    0.6309    0.4466 C.3     1  UNL1       -0.0516
     13 C          -2.6583    1.5114    0.7483 C.3     1  UNL1       -0.0372
     14 C          -1.8783    1.9490   -0.4888 C.3     1  UNL1        0.0135
     15 N           0.1712   -0.9415   -1.6421 N.ar    1  UNL1       -0.1583
     16 N           1.3610   -1.2251   -1.0992 N.ar    1  UNL1       -0.2752
     17 C           3.6880    0.6831    1.0438 C.ar    1  UNL1       -0.0526
     18 C           4.8956    0.5898    1.7407 C.ar    1  UNL1       -0.0611
     19 H           6.3843   -0.7316    2.5622 H       1  UNL1        0.0618
     20 H           5.2122   -2.7898    1.8261 H       1  UNL1        0.0618
     21 H           3.0812   -2.6409    0.6121 H       1  UNL1        0.0624
     22 H           0.6964    1.4186    0.6041 H       1  UNL1        0.0674
     23 H          -3.1194    0.9483   -2.4770 H       1  UNL1        0.0464
     24 H          -1.9261   -0.1636   -3.0748 H       1  UNL1        0.0464
     25 H          -2.5782   -1.8812   -1.5831 H       1  UNL1        0.0280
     26 H          -4.0783   -1.1171   -2.0431 H       1  UNL1        0.0280
     27 H          -4.3435   -1.4536    0.2231 H       1  UNL1        0.0266
     28 H          -2.6682   -1.1496    0.6172 H       1  UNL1        0.0266
     29 H          -4.4555    0.5481    1.3750 H       1  UNL1        0.0266
     30 H          -4.5328    1.1099   -0.2887 H       1  UNL1        0.0266
     31 H          -3.0056    2.4138    1.2667 H       1  UNL1        0.0280
     32 H          -1.9935    0.9904    1.4481 H       1  UNL1        0.0280
     33 H          -1.0494    2.6026   -0.1933 H       1  UNL1        0.0464
     34 H          -2.5216    2.5825   -1.1132 H       1  UNL1        0.0464
     35 H           1.8653   -2.0279   -1.4555 H       1  UNL1        0.1890
     36 H           3.2818    1.6691    0.8304 H       1  UNL1        0.0624
     37 H           5.4054    1.4936    2.0645 H       1  UNL1        0.0618
@<TRIPOS>BOND
     1     1     2   ar
     2     2     3   ar
     3     3     4   ar
     4     4     5    1
     5     5     6   ar
     6     6     7   ar
     7     7     8    1
     8     8     9    1
     9     9    10    1
    10    10    11    1
    11    11    12    1
    12    12    13    1
    13    13    14    1
    14     7    15   ar
    15    15    16   ar
    16     4    17   ar
    17    17    18   ar
    18    18     1   ar
    19    16     5   ar
    20    14     8    1
    21     1    19    1
    22     2    20    1
    23     3    21    1
    24     6    22    1
    25     9    23    1
    26     9    24    1
    27    10    25    1
    28    10    26    1
    29    11    27    1
    30    11    28    1
    31    12    29    1
    32    12    30    1
    33    13    31    1
    34    13    32    1
    35    14    33    1
    36    14    34    1
    37    16    35    1
    38    17    36    1
    39    18    37    1
