@<TRIPOS>MOLECULE
*****
 46 50 0 0 0
SMALL
GASTEIGER

@<TRIPOS>ATOM
      1 C           8.2146   -0.5326   -0.4512 C.ar    1  UNL1       -0.0436
      2 C           7.4543   -1.6217   -0.8499 C.ar    1  UNL1       -0.0583
      3 C           6.0648   -1.5543   -0.7612 C.ar    1  UNL1       -0.0342
      4 C           5.4586   -0.3934   -0.2728 C.ar    1  UNL1        0.0891
      5 C           3.9849   -0.2492   -0.1754 C.ar    1  UNL1        0.0891
      6 C           3.3853    0.9264    0.2832 C.ar    1  UNL1       -0.0336
      7 C           1.9933    1.0219    0.3259 C.ar    1  UNL1       -0.0505
      8 C           1.2049   -0.0530   -0.0835 C.ar    1  UNL1        0.0003
      9 C          -0.2557    0.0197   -0.0716 C.ar    1  UNL1       -0.0158
     10 C          -0.9393    0.8056   -1.0045 C.ar    1  UNL1       -0.0490
     11 C          -2.3432    0.8829   -1.0067 C.ar    1  UNL1       -0.0255
     12 C          -3.0995    0.1914   -0.0382 C.ar    1  UNL1        0.0361
     13 C          -2.4119   -0.6162    0.8903 C.ar    1  UNL1       -0.0255
     14 C          -1.0070   -0.6894    0.8715 C.ar    1  UNL1       -0.0490
     15 C          -3.1567   -1.3725    1.9622 C.3     1  UNL1       -0.0245
     16 C          -4.6371   -1.5092    1.6426 C.3     1  UNL1       -0.0332
     17 C          -5.1802   -0.1648    1.1857 C.3     1  UNL1        0.0125
     18 N          -4.5008    0.2558   -0.0377 N.pl3   1  UNL1       -0.3294
     19 C          -5.1154    1.3520   -0.7856 C.3     1  UNL1        0.0125
     20 C          -4.4936    1.4484   -2.1693 C.3     1  UNL1       -0.0332
     21 C          -3.0125    1.7642   -2.0333 C.3     1  UNL1       -0.0245
     22 C           1.8815   -1.1894   -0.5167 C.ar    1  UNL1        0.0360
     23 N           3.2319   -1.3136   -0.5732 N.ar    1  UNL1       -0.2528
     24 N           6.2051    0.6771    0.1226 N.ar    1  UNL1       -0.2534
     25 C           7.5502    0.5833    0.0262 C.ar    1  UNL1        0.0283
     26 H           9.2969   -0.5506   -0.5093 H       1  UNL1        0.0633
     27 H           7.9328   -2.5210   -1.2286 H       1  UNL1        0.0619
     28 H           5.4611   -2.4027   -1.0701 H       1  UNL1        0.0639
     29 H           3.9940    1.7682    0.6018 H       1  UNL1        0.0640
     30 H           1.5331    1.9382    0.6851 H       1  UNL1        0.0625
     31 H          -0.3746    1.3622   -1.7506 H       1  UNL1        0.0627
     32 H          -0.4970   -1.3006    1.6126 H       1  UNL1        0.0627
     33 H          -2.7251   -2.3723    2.0877 H       1  UNL1        0.0314
     34 H          -3.0346   -0.8340    2.9109 H       1  UNL1        0.0314
     35 H          -5.1804   -1.8621    2.5262 H       1  UNL1        0.0283
     36 H          -4.7791   -2.2566    0.8502 H       1  UNL1        0.0283
     37 H          -5.0599    0.5948    1.9695 H       1  UNL1        0.0464
     38 H          -6.2548   -0.2660    0.9944 H       1  UNL1        0.0464
     39 H          -6.1902    1.1654   -0.8958 H       1  UNL1        0.0464
     40 H          -5.0033    2.2968   -0.2381 H       1  UNL1        0.0464
     41 H          -4.9897    2.2262   -2.7621 H       1  UNL1        0.0283
     42 H          -4.6238    0.4968   -2.7023 H       1  UNL1        0.0283
     43 H          -2.5297    1.6397   -3.0109 H       1  UNL1        0.0314
     44 H          -2.8843    2.8104   -1.7267 H       1  UNL1        0.0314
     45 H           1.3348   -2.0660   -0.8567 H       1  UNL1        0.0836
     46 H           8.0974    1.4638    0.3486 H       1  UNL1        0.0830
@<TRIPOS>BOND
     1     1     2   ar
     2     2     3   ar
     3     3     4   ar
     4     4     5    1
     5     5     6   ar
     6     6     7   ar
     7     7     8   ar
     8     8     9    1
     9     9    10   ar
    10    10    11   ar
    11    11    12   ar
    12    12    13   ar
    13    13    14   ar
    14    13    15    1
    15    15    16    1
    16    16    17    1
    17    17    18    1
    18    18    19    1
    19    19    20    1
    20    20    21    1
    21     8    22   ar
    22    22    23   ar
    23     4    24   ar
    24    24    25   ar
    25    25     1   ar
    26    23     5   ar
    27    14     9   ar
    28    21    11    1
    29    18    12    1
    30     1    26    1
    31     2    27    1
    32     3    28    1
    33     6    29    1
    34     7    30    1
    35    10    31    1
    36    14    32    1
    37    15    33    1
    38    15    34    1
    39    16    35    1
    40    16    36    1
    41    17    37    1
    42    17    38    1
    43    19    39    1
    44    19    40    1
    45    20    41    1
    46    20    42    1
    47    21    43    1
    48    21    44    1
    49    22    45    1
    50    25    46    1
