@<TRIPOS>MOLECULE
*****
 37 41 0 0 0
SMALL
GASTEIGER

@<TRIPOS>ATOM
      1 C           7.4957    0.4007   -0.0417 C.ar    1  UNL1       -0.0436
      2 C           6.9835   -0.4625    0.9144 C.ar    1  UNL1       -0.0583
      3 C           5.6002   -0.6130    1.0347 C.ar    1  UNL1       -0.0342
      4 C           4.7446    0.1053    0.1931 C.ar    1  UNL1        0.0891
      5 C           3.2554    0.0085    0.2490 C.ar    1  UNL1        0.0891
      6 C           2.5629   -0.8070    1.1448 C.ar    1  UNL1       -0.0336
      7 C           1.1618   -0.8370    1.1284 C.ar    1  UNL1       -0.0491
      8 C           0.4426   -0.0575    0.2227 C.ar    1  UNL1        0.0164
      9 C          -1.0275   -0.0783    0.1934 C.ar    1  UNL1        0.0489
     10 C          -1.9358   -0.7909    0.9653 C.ar    1  UNL1       -0.0286
     11 C          -3.2560   -0.4659    0.5510 C.ar    1  UNL1        0.0010
     12 C          -4.5411   -0.8668    0.9576 C.ar    1  UNL1       -0.0418
     13 C          -5.6790   -0.3446    0.3273 C.ar    1  UNL1        0.0208
     14 C          -7.0839   -0.5026    0.4552 C.ar    1  UNL1       -0.0161
     15 C          -7.6553    0.3178   -0.4914 C.ar    1  UNL1        0.0931
     16 O          -6.6979    0.9746   -1.1986 O.2     1  UNL1       -0.4629
     17 C          -5.4981    0.5714   -0.7004 C.ar    1  UNL1        0.1368
     18 C          -4.2476    0.9897   -1.1277 C.ar    1  UNL1        0.0051
     19 C          -3.1329    0.4553   -0.4844 C.ar    1  UNL1        0.0505
     20 N          -1.7903    0.6721   -0.6810 N.ar    1  UNL1       -0.3540
     21 C           1.2099    0.7245   -0.6326 C.ar    1  UNL1        0.0374
     22 N           2.5653    0.7727   -0.6385 N.ar    1  UNL1       -0.2528
     23 N           5.2590    0.9512   -0.7433 N.ar    1  UNL1       -0.2534
     24 C           6.5992    1.0806   -0.8413 C.ar    1  UNL1        0.0283
     25 H           8.5637    0.5407   -0.1614 H       1  UNL1        0.0633
     26 H           7.6528   -1.0179    1.5654 H       1  UNL1        0.0619
     27 H           5.2238   -1.2932    1.7889 H       1  UNL1        0.0639
     28 H           3.0765   -1.4303    1.8668 H       1  UNL1        0.0640
     29 H           0.6520   -1.4821    1.8384 H       1  UNL1        0.0625
     30 H          -1.6859   -1.4844    1.7571 H       1  UNL1        0.0645
     31 H          -4.6510   -1.5854    1.7649 H       1  UNL1        0.0631
     32 H          -7.6140   -1.1361    1.1514 H       1  UNL1        0.0655
     33 H          -8.6751    0.5367   -0.7752 H       1  UNL1        0.1029
     34 H          -4.1535    1.7077   -1.9350 H       1  UNL1        0.0675
     35 H          -1.4277    1.3030   -1.3804 H       1  UNL1        0.1659
     36 H           0.7644    1.3724   -1.3800 H       1  UNL1        0.0836
     37 H           6.9392    1.7706   -1.6080 H       1  UNL1        0.0830
@<TRIPOS>BOND
     1     1     2   ar
     2     2     3   ar
     3     3     4   ar
     4     4     5    1
     5     5     6   ar
     6     6     7   ar
     7     7     8   ar
     8     8     9    1
     9     9    10   ar
    10    10    11   ar
    11    11    12   ar
    12    12    13   ar
    13    13    14   ar
    14    14    15   ar
    15    15    16   ar
    16    16    17   ar
    17    17    18   ar
    18    18    19   ar
    19    19    20   ar
    20     8    21   ar
    21    21    22   ar
    22     4    23   ar
    23    23    24   ar
    24    24     1   ar
    25    22     5   ar
    26    20     9   ar
    27    19    11   ar
    28    17    13   ar
    29     1    25    1
    30     2    26    1
    31     3    27    1
    32     6    28    1
    33     7    29    1
    34    10    30    1
    35    12    31    1
    36    14    32    1
    37    15    33    1
    38    18    34    1
    39    20    35    1
    40    21    36    1
    41    24    37    1
