@<TRIPOS>MOLECULE
*****
 36 40 0 0 0
SMALL
GASTEIGER

@<TRIPOS>ATOM
      1 C          -7.3601    0.0959   -0.7888 C.ar    1  UNL1       -0.0436
      2 C          -6.8716   -0.1440    0.4873 C.ar    1  UNL1       -0.0583
      3 C          -5.4938   -0.1725    0.6960 C.ar    1  UNL1       -0.0342
      4 C          -4.6270    0.0401   -0.3789 C.ar    1  UNL1        0.0891
      5 C          -3.1519    0.0218   -0.2192 C.ar    1  UNL1        0.0891
      6 C          -2.2849    0.2339   -1.2915 C.ar    1  UNL1       -0.0335
      7 C          -0.9029    0.2056   -1.0840 C.ar    1  UNL1       -0.0476
      8 C          -0.3879   -0.0336    0.1903 C.ar    1  UNL1        0.0354
      9 C           1.0447   -0.0727    0.4567 C.ar    1  UNL1        0.1377
     10 C           1.8142   -0.2825    1.5876 C.ar    1  UNL1       -0.0079
     11 C           3.1735   -0.1948    1.1879 C.ar    1  UNL1        0.0243
     12 C           4.4212   -0.3043    1.8148 C.ar    1  UNL1       -0.0080
     13 C           5.5659   -0.1469    1.0406 C.ar    1  UNL1        0.1356
     14 O           6.8500   -0.2210    1.4841 O.2     1  UNL1       -0.4629
     15 C           7.6509   -0.0085    0.4066 C.ar    1  UNL1        0.0931
     16 C           6.8974    0.2018   -0.7263 C.ar    1  UNL1       -0.0160
     17 C           5.5390    0.1140   -0.3258 C.ar    1  UNL1        0.0236
     18 C           4.2906    0.2233   -0.9514 C.ar    1  UNL1       -0.0080
     19 C           3.1466    0.0656   -0.1762 C.ar    1  UNL1        0.1365
     20 O           1.8643    0.1397   -0.6191 O.2     1  UNL1       -0.4548
     21 C          -1.3221   -0.2345    1.2008 C.ar    1  UNL1        0.0390
     22 N          -2.6699   -0.2134    1.0323 N.ar    1  UNL1       -0.2527
     23 N          -5.1058    0.2759   -1.6334 N.ar    1  UNL1       -0.2534
     24 C          -6.4463    0.2980   -1.8068 C.ar    1  UNL1        0.0283
     25 H          -8.4257    0.1247   -0.9855 H       1  UNL1        0.0633
     26 H          -7.5526   -0.3082    1.3173 H       1  UNL1        0.0619
     27 H          -5.1014   -0.3595    1.6914 H       1  UNL1        0.0639
     28 H          -2.6758    0.4210   -2.2878 H       1  UNL1        0.0640
     29 H          -0.2409    0.3729   -1.9304 H       1  UNL1        0.0626
     30 H           1.4478   -0.4762    2.5855 H       1  UNL1        0.0661
     31 H           4.5037   -0.5067    2.8775 H       1  UNL1        0.0661
     32 H           8.7135   -0.0374    0.6042 H       1  UNL1        0.1029
     33 H           7.2807    0.3945   -1.7181 H       1  UNL1        0.0655
     34 H           4.2085    0.4257   -2.0141 H       1  UNL1        0.0661
     35 H          -1.0151   -0.4277    2.2251 H       1  UNL1        0.0837
     36 H          -6.7769    0.4896   -2.8237 H       1  UNL1        0.0830
@<TRIPOS>BOND
     1     1     2   ar
     2     2     3   ar
     3     3     4   ar
     4     4     5    1
     5     5     6   ar
     6     6     7   ar
     7     7     8   ar
     8     8     9    1
     9     9    10   ar
    10    10    11   ar
    11    11    12   ar
    12    12    13   ar
    13    13    14   ar
    14    14    15   ar
    15    15    16   ar
    16    16    17   ar
    17    17    18   ar
    18    18    19   ar
    19    19    20   ar
    20     8    21   ar
    21    21    22   ar
    22     4    23   ar
    23    23    24   ar
    24    24     1   ar
    25    22     5   ar
    26    20     9   ar
    27    19    11   ar
    28    17    13   ar
    29     1    25    1
    30     2    26    1
    31     3    27    1
    32     6    28    1
    33     7    29    1
    34    10    30    1
    35    12    31    1
    36    15    32    1
    37    16    33    1
    38    18    34    1
    39    21    35    1
    40    24    36    1
