@<TRIPOS>MOLECULE
*****
 34 37 0 0 0
SMALL
GASTEIGER

@<TRIPOS>ATOM
      1 C           6.7572    0.3399    0.5246 C.ar    1  UNL1       -0.0436
      2 C           6.2805   -0.5306   -0.4430 C.ar    1  UNL1       -0.0583
      3 C           4.9027   -0.6710   -0.6232 C.ar    1  UNL1       -0.0342
      4 C           4.0168    0.0648    0.1706 C.ar    1  UNL1        0.0891
      5 C           2.5307   -0.0204    0.0492 C.ar    1  UNL1        0.0891
      6 C           1.8719   -0.8412   -0.8671 C.ar    1  UNL1       -0.0336
      7 C           0.4714   -0.8595   -0.9133 C.ar    1  UNL1       -0.0491
      8 C          -0.2807   -0.0630   -0.0502 C.ar    1  UNL1        0.0164
      9 C          -1.7505   -0.0714   -0.0868 C.ar    1  UNL1        0.0489
     10 C          -2.6300   -0.7851   -0.8892 C.ar    1  UNL1       -0.0286
     11 C          -3.9638   -0.4427   -0.5370 C.ar    1  UNL1        0.0003
     12 C          -5.2339   -0.8391   -0.9971 C.ar    1  UNL1       -0.0526
     13 C          -6.3772   -0.2856   -0.4088 C.ar    1  UNL1       -0.0611
     14 C          -6.2657    0.6470    0.6205 C.ar    1  UNL1       -0.0598
     15 C          -5.0139    1.0540    1.0921 C.ar    1  UNL1       -0.0378
     16 C          -3.8827    0.4893    0.4912 C.ar    1  UNL1        0.0469
     17 N          -2.5459    0.6953    0.7429 N.ar    1  UNL1       -0.3541
     18 C           0.4541    0.7232    0.8293 C.ar    1  UNL1        0.0374
     19 N           1.8085    0.7605    0.8957 N.ar    1  UNL1       -0.2528
     20 N           4.4965    0.9177    1.1190 N.ar    1  UNL1       -0.2534
     21 C           5.8321    1.0371    1.2753 C.ar    1  UNL1        0.0283
     22 H           7.8200    0.4724    0.6903 H       1  UNL1        0.0633
     23 H           6.9731   -1.0996   -1.0568 H       1  UNL1        0.0619
     24 H           4.5542   -1.3571   -1.3854 H       1  UNL1        0.0639
     25 H           2.4117   -1.4775   -1.5578 H       1  UNL1        0.0640
     26 H          -0.0123   -1.5089   -1.6375 H       1  UNL1        0.0625
     27 H          -2.3534   -1.4906   -1.6611 H       1  UNL1        0.0645
     28 H          -5.3285   -1.5653   -1.7987 H       1  UNL1        0.0624
     29 H          -7.3607   -0.5878   -0.7599 H       1  UNL1        0.0618
     30 H          -7.1660    1.0657    1.0648 H       1  UNL1        0.0618
     31 H          -4.9306    1.7804    1.8937 H       1  UNL1        0.0638
     32 H          -2.2100    1.3316    1.4500 H       1  UNL1        0.1659
     33 H          -0.0192    1.3837    1.5480 H       1  UNL1        0.0836
     34 H           6.1436    1.7336    2.0481 H       1  UNL1        0.0830
@<TRIPOS>BOND
     1     1     2   ar
     2     2     3   ar
     3     3     4   ar
     4     4     5    1
     5     5     6   ar
     6     6     7   ar
     7     7     8   ar
     8     8     9    1
     9     9    10   ar
    10    10    11   ar
    11    11    12   ar
    12    12    13   ar
    13    13    14   ar
    14    14    15   ar
    15    15    16   ar
    16    16    17   ar
    17     8    18   ar
    18    18    19   ar
    19     4    20   ar
    20    20    21   ar
    21    21     1   ar
    22    19     5   ar
    23    17     9   ar
    24    16    11   ar
    25     1    22    1
    26     2    23    1
    27     3    24    1
    28     6    25    1
    29     7    26    1
    30    10    27    1
    31    12    28    1
    32    13    29    1
    33    14    30    1
    34    15    31    1
    35    17    32    1
    36    18    33    1
    37    21    34    1
