@<TRIPOS>MOLECULE
*****
 33 36 0 0 0
SMALL
GASTEIGER

@<TRIPOS>ATOM
      1 C          -6.7591   -0.1512   -0.4506 C.ar    1  UNL1       -0.0436
      2 C          -6.0796    1.0582   -0.4718 C.ar    1  UNL1       -0.0583
      3 C          -4.6884    1.0604   -0.3878 C.ar    1  UNL1       -0.0342
      4 C          -3.9999   -0.1507   -0.2838 C.ar    1  UNL1        0.0891
      5 C          -2.5207   -0.2124   -0.1912 C.ar    1  UNL1        0.0891
      6 C          -1.8304   -1.4180   -0.0874 C.ar    1  UNL1       -0.0336
      7 C          -0.4332   -1.4181   -0.0029 C.ar    1  UNL1       -0.0500
      8 C           0.2841   -0.2181   -0.0213 C.ar    1  UNL1        0.0069
      9 C           1.7603   -0.1429    0.0641 C.ar    1  UNL1        0.0219
     10 C           2.5792    0.9749    0.0560 C.ar    1  UNL1       -0.0391
     11 C           3.9816    0.6812    0.1560 C.ar    1  UNL1       -0.0102
     12 C           5.1044    1.5434    0.1794 C.ar    1  UNL1       -0.0535
     13 C           6.3962    1.0191    0.2846 C.ar    1  UNL1       -0.0611
     14 C           6.5901   -0.3527    0.3669 C.ar    1  UNL1       -0.0607
     15 C           5.5001   -1.2258    0.3460 C.ar    1  UNL1       -0.0474
     16 C           4.2011   -0.6915    0.2399 C.ar    1  UNL1        0.0199
     17 S           2.7226   -1.5604    0.1953 S.2     1  UNL1       -0.0882
     18 C          -0.4937    0.9346   -0.1277 C.ar    1  UNL1        0.0365
     19 N          -1.8507    0.9698   -0.2115 N.ar    1  UNL1       -0.2528
     20 N          -4.6663   -1.3400   -0.2629 N.ar    1  UNL1       -0.2534
     21 C          -6.0154   -1.3124   -0.3459 C.ar    1  UNL1        0.0283
     22 H          -7.8405   -0.1884   -0.5141 H       1  UNL1        0.0633
     23 H          -6.6228    1.9952   -0.5529 H       1  UNL1        0.0619
     24 H          -4.1471    2.0020   -0.4035 H       1  UNL1        0.0639
     25 H          -2.3697   -2.3614   -0.0714 H       1  UNL1        0.0640
     26 H           0.0648   -2.3804    0.0768 H       1  UNL1        0.0625
     27 H           2.2098    1.9897   -0.0186 H       1  UNL1        0.0635
     28 H           4.9649    2.6196    0.1156 H       1  UNL1        0.0624
     29 H           7.2511    1.6908    0.3017 H       1  UNL1        0.0618
     30 H           7.5977   -0.7538    0.4485 H       1  UNL1        0.0618
     31 H           5.6536   -2.2992    0.4106 H       1  UNL1        0.0629
     32 H          -0.0449    1.9233   -0.1514 H       1  UNL1        0.0836
     33 H          -6.4990   -2.2849   -0.3250 H       1  UNL1        0.0830
@<TRIPOS>BOND
     1     1     2   ar
     2     2     3   ar
     3     3     4   ar
     4     4     5    1
     5     5     6   ar
     6     6     7   ar
     7     7     8   ar
     8     8     9    1
     9     9    10   ar
    10    10    11   ar
    11    11    12   ar
    12    12    13   ar
    13    13    14   ar
    14    14    15   ar
    15    15    16   ar
    16    16    17   ar
    17     8    18   ar
    18    18    19   ar
    19     4    20   ar
    20    20    21   ar
    21    21     1   ar
    22    19     5   ar
    23    17     9   ar
    24    16    11   ar
    25     1    22    1
    26     2    23    1
    27     3    24    1
    28     6    25    1
    29     7    26    1
    30    10    27    1
    31    12    28    1
    32    13    29    1
    33    14    30    1
    34    15    31    1
    35    18    32    1
    36    21    33    1
