@<TRIPOS>MOLECULE
*****
 35 39 0 0 0
SMALL
GASTEIGER

@<TRIPOS>ATOM
      1 C          -7.1967   -0.0595   -0.4883 C.ar    1  UNL1       -0.0436
      2 C          -6.4258   -0.0691   -1.6416 C.ar    1  UNL1       -0.0583
      3 C          -5.0362   -0.0575   -1.5334 C.ar    1  UNL1       -0.0342
      4 C          -4.4414   -0.0364   -0.2695 C.ar    1  UNL1        0.0891
      5 C          -2.9688   -0.0232   -0.0899 C.ar    1  UNL1        0.0891
      6 C          -2.3729   -0.0022    1.1701 C.ar    1  UNL1       -0.0336
      7 C          -0.9789    0.0095    1.2813 C.ar    1  UNL1       -0.0491
      8 C          -0.1771    0.0003    0.1390 C.ar    1  UNL1        0.0165
      9 C           1.2905    0.0124    0.2384 C.ar    1  UNL1        0.0516
     10 C           2.1191    0.0333    1.3603 C.ar    1  UNL1       -0.0087
     11 C           3.4624    0.0374    0.9276 C.ar    1  UNL1        0.1089
     12 N           4.6336    0.0551    1.6178 N.ar    1  UNL1       -0.2387
     13 C           5.7522    0.0531    0.8426 C.ar    1  UNL1        0.1293
     14 C           7.1234    0.0676    1.1703 C.ar    1  UNL1        0.0039
     15 C           7.7985    0.0567   -0.0319 C.ar    1  UNL1        0.0966
     16 O           6.9299    0.0364   -1.0821 O.2     1  UNL1       -0.4439
     17 C           5.6770    0.0342   -0.5500 C.ar    1  UNL1        0.2478
     18 N           4.5282    0.0164   -1.2575 N.ar    1  UNL1       -0.1914
     19 C           3.4427    0.0190   -0.4587 C.ar    1  UNL1        0.1609
     20 N           2.1384    0.0041   -0.8591 N.ar    1  UNL1       -0.3377
     21 C          -0.8580   -0.0208   -1.0763 C.ar    1  UNL1        0.0374
     22 N          -2.2088   -0.0326   -1.2180 N.ar    1  UNL1       -0.2528
     23 N          -5.1977   -0.0269    0.8648 N.ar    1  UNL1       -0.2534
     24 C          -6.5429   -0.0386    0.7301 C.ar    1  UNL1        0.0283
     25 H          -8.2796   -0.0681   -0.5370 H       1  UNL1        0.0633
     26 H          -6.8968   -0.0855   -2.6201 H       1  UNL1        0.0619
     27 H          -4.4240   -0.0649   -2.4305 H       1  UNL1        0.0639
     28 H          -2.9846    0.0052    2.0682 H       1  UNL1        0.0640
     29 H          -0.5444    0.0259    2.2768 H       1  UNL1        0.0625
     30 H           1.7996    0.0445    2.3931 H       1  UNL1        0.0661
     31 H           7.5612    0.0838    2.1569 H       1  UNL1        0.0671
     32 H           8.8463    0.0608   -0.3001 H       1  UNL1        0.1031
     33 H           1.8670   -0.0107   -1.8303 H       1  UNL1        0.1674
     34 H          -0.3351   -0.0295   -2.0273 H       1  UNL1        0.0836
     35 H          -7.1002   -0.0303    1.6625 H       1  UNL1        0.0830
@<TRIPOS>BOND
     1     1     2   ar
     2     2     3   ar
     3     3     4   ar
     4     4     5    1
     5     5     6   ar
     6     6     7   ar
     7     7     8   ar
     8     8     9    1
     9     9    10   ar
    10    10    11   ar
    11    11    12   ar
    12    12    13   ar
    13    13    14   ar
    14    14    15   ar
    15    15    16   ar
    16    16    17   ar
    17    17    18   ar
    18    18    19   ar
    19    19    20   ar
    20     8    21   ar
    21    21    22   ar
    22     4    23   ar
    23    23    24   ar
    24    24     1   ar
    25    22     5   ar
    26    20     9   ar
    27    19    11   ar
    28    17    13   ar
    29     1    25    1
    30     2    26    1
    31     3    27    1
    32     6    28    1
    33     7    29    1
    34    10    30    1
    35    14    31    1
    36    15    32    1
    37    20    33    1
    38    21    34    1
    39    24    35    1
