@<TRIPOS>MOLECULE
*****
 32 35 0 0 0
SMALL
GASTEIGER

@<TRIPOS>ATOM
      1 C          -6.2532    0.2570   -0.0763 C.ar    1  UNL1       -0.0436
      2 C          -5.5926   -0.8317   -0.6267 C.ar    1  UNL1       -0.0583
      3 C          -4.2022   -0.8946   -0.5534 C.ar    1  UNL1       -0.0342
      4 C          -3.4957    0.1361    0.0711 C.ar    1  UNL1        0.0891
      5 C          -2.0156    0.1296    0.1742 C.ar    1  UNL1        0.0891
      6 C          -1.3102    1.1577    0.7996 C.ar    1  UNL1       -0.0336
      7 C           0.0839    1.1025    0.8681 C.ar    1  UNL1       -0.0505
      8 C           0.7752    0.0229    0.3128 C.ar    1  UNL1        0.0003
      9 C           2.2419   -0.0696    0.3622 C.ar    1  UNL1       -0.0142
     10 C           2.9279    0.0586    1.5875 C.ar    1  UNL1       -0.0519
     11 C           4.3254   -0.0201    1.6828 C.ar    1  UNL1       -0.0342
     12 C           5.0119   -0.2331    0.4899 C.ar    1  UNL1        0.0858
     13 N           6.3357   -0.3629    0.1766 N.ar    1  UNL1       -0.2571
     14 N           6.5238   -0.5561   -1.1393 N.ar    1  UNL1       -0.0673
     15 N           5.3279   -0.5577   -1.7152 N.ar    1  UNL1       -0.1297
     16 C           4.3856   -0.3646   -0.7404 C.ar    1  UNL1        0.1130
     17 C           2.9873   -0.2847   -0.8152 C.ar    1  UNL1       -0.0247
     18 C          -0.0090   -0.9580   -0.2914 C.ar    1  UNL1        0.0360
     19 N          -1.3636   -0.9331   -0.3721 N.ar    1  UNL1       -0.2528
     20 N          -4.1438    1.2056    0.6152 N.ar    1  UNL1       -0.2534
     21 C          -5.4925    1.2405    0.5283 C.ar    1  UNL1        0.0283
     22 H          -7.3333    0.3372   -0.1189 H       1  UNL1        0.0633
     23 H          -6.1495   -1.6285   -1.1113 H       1  UNL1        0.0619
     24 H          -3.6751   -1.7425   -0.9818 H       1  UNL1        0.0639
     25 H          -1.8371    2.0068    1.2259 H       1  UNL1        0.0640
     26 H           0.6201    1.9199    1.3439 H       1  UNL1        0.0625
     27 H           2.3603    0.2115    2.5064 H       1  UNL1        0.0624
     28 H           4.8325    0.0804    2.6357 H       1  UNL1        0.0639
     29 H           7.1444   -0.3318    0.7852 H       1  UNL1        0.1907
     30 H           2.5058   -0.3755   -1.7838 H       1  UNL1        0.0646
     31 H           0.4456   -1.8362   -0.7452 H       1  UNL1        0.0836
     32 H          -5.9618    2.1146    0.9719 H       1  UNL1        0.0830
@<TRIPOS>BOND
     1     1     2   ar
     2     2     3   ar
     3     3     4   ar
     4     4     5    1
     5     5     6   ar
     6     6     7   ar
     7     7     8   ar
     8     8     9    1
     9     9    10   ar
    10    10    11   ar
    11    11    12   ar
    12    12    13   ar
    13    13    14   ar
    14    14    15   ar
    15    15    16   ar
    16    16    17   ar
    17     8    18   ar
    18    18    19   ar
    19     4    20   ar
    20    20    21   ar
    21    21     1   ar
    22    19     5   ar
    23    17     9   ar
    24    16    12   ar
    25     1    22    1
    26     2    23    1
    27     3    24    1
    28     6    25    1
    29     7    26    1
    30    10    27    1
    31    11    28    1
    32    13    29    1
    33    17    30    1
    34    18    31    1
    35    21    32    1
