@<TRIPOS>MOLECULE
*****
 48 55 0 0 0
SMALL
GASTEIGER

@<TRIPOS>ATOM
      1 SI         -1.3454   -3.5518    2.0065 Si      1  UNL1        0.0000
      2 C           0.3418   -2.9565    1.4942 C.2     1  UNL1        0.0000
      3 C           0.2726   -1.7480    0.8997 C.ar    1  UNL1        0.0000
      4 C           1.3829   -0.9156    0.5529 C.ar    1  UNL1        0.0000
      5 C           2.7611   -1.2694    0.5084 C.ar    1  UNL1        0.0000
      6 C           3.5619   -0.2172    0.1011 C.ar    1  UNL1        0.0000
      7 S           2.6048    1.1649   -0.2422 S.2     1  UNL1        0.0000
      8 C           1.1489    0.4126    0.2314 C.ar    1  UNL1        0.0000
      9 C          -0.1959    1.0157    0.1494 C.ar    1  UNL1        0.0000
     10 C          -0.5368    2.3791    0.0519 C.ar    1  UNL1        0.0000
     11 C           0.3236    3.4306    0.2812 C.ar    1  UNL1        0.0000
     12 S          -0.4281    4.9589    0.0976 S.2     1  UNL1        0.0000
     13 C          -1.9407    4.2378   -0.2447 C.ar    1  UNL1        0.0000
     14 C          -1.8855    2.8605   -0.2162 C.ar    1  UNL1        0.0000
     15 C          -3.0155    2.0304   -0.4703 C.ar    1  UNL1        0.0000
     16 C          -4.3416    2.5427   -0.8252 C.ar    1  UNL1        0.0000
     17 C          -5.4437    1.7399   -1.1655 C.ar    1  UNL1        0.0000
     18 C          -5.0710    0.4100   -1.1682 C.ar    1  UNL1        0.0000
     19 C          -5.8824   -0.6120   -1.5900 C.ar    1  UNL1        0.0000
     20 N          -5.1227   -1.7567   -1.5612 N.ar    1  UNL1        0.0000
     21 C          -3.8449   -1.4636   -1.1360 C.ar    1  UNL1        0.0000
     22 C          -3.7958   -0.1283   -0.8000 C.ar    1  UNL1        0.0000
     23 C          -2.6623    0.6191   -0.3440 C.ar    1  UNL1        0.0000
     24 C          -1.3465    0.1530    0.1190 C.ar    1  UNL1        0.0000
     25 C          -1.1039   -1.2075    0.7179 C.ar    1  UNL1        0.0000
     26 C          -2.0426   -1.9596    1.3347 C.2     1  UNL1        0.0000
     27 C           5.0190   -0.1798   -0.0888 C.ar    1  UNL1        0.0000
     28 C           5.7387   -1.3182   -0.4448 C.ar    1  UNL1        0.0000
     29 C           7.1207   -1.2223   -0.5949 C.ar    1  UNL1        0.0000
     30 C           7.7448    0.0004   -0.3838 C.ar    1  UNL1        0.0000
     31 C           6.9572    1.0820   -0.0302 C.ar    1  UNL1        0.0000
     32 N           5.6170    1.0179    0.1229 N.ar    1  UNL1        0.0000
     33 H          -1.4853   -3.6662    3.4777 H       1  UNL1        0.0000
     34 H          -1.7880   -4.7336    1.2271 H       1  UNL1        0.0000
     35 H           1.2298   -3.5046    1.7630 H       1  UNL1        0.0000
     36 H           3.1497   -2.2480    0.7585 H       1  UNL1        0.0000
     37 H           1.3621    3.4268    0.5727 H       1  UNL1        0.0000
     38 H          -2.7801    4.8892   -0.4361 H       1  UNL1        0.0000
     39 H          -4.5037    3.6188   -0.8560 H       1  UNL1        0.0000
     40 H          -6.4080    2.1336   -1.4508 H       1  UNL1        0.0000
     41 H          -6.9037   -0.6329   -1.9453 H       1  UNL1        0.0000
     42 H          -5.4368   -2.6702   -1.8620 H       1  UNL1        0.0000
     43 H          -3.0951   -2.2417   -1.1351 H       1  UNL1        0.0000
     44 H          -3.0878   -1.7299    1.4676 H       1  UNL1        0.0000
     45 H           5.2417   -2.2662   -0.6180 H       1  UNL1        0.0000
     46 H           7.7031   -2.0947   -0.8772 H       1  UNL1        0.0000
     47 H           8.8178    0.1097   -0.4936 H       1  UNL1        0.0000
     48 H           7.3948    2.0606    0.1455 H       1  UNL1        0.0000
@<TRIPOS>BOND
     1     1     2    1
     2     2     3    2
     3     3     4   ar
     4     4     5   ar
     5     5     6   ar
     6     6     7   ar
     7     7     8   ar
     8     8     9   ar
     9     9    10   ar
    10    10    11   ar
    11    11    12   ar
    12    12    13   ar
    13    13    14   ar
    14    14    15   ar
    15    15    16   ar
    16    16    17   ar
    17    17    18   ar
    18    18    19   ar
    19    19    20   ar
    20    20    21   ar
    21    21    22   ar
    22    22    23   ar
    23    23    24   ar
    24    24    25   ar
    25    25    26    2
    26     6    27    1
    27    27    28   ar
    28    28    29   ar
    29    29    30   ar
    30    30    31   ar
    31    31    32   ar
    32    26     1    1
    33    32    27   ar
    34    25     3   ar
    35     8     4   ar
    36    24     9   ar
    37    14    10   ar
    38    23    15   ar
    39    22    18   ar
    40     1    33    1
    41     1    34    1
    42     2    35    1
    43     5    36    1
    44    11    37    1
    45    13    38    1
    46    16    39    1
    47    17    40    1
    48    19    41    1
    49    20    42    1
    50    21    43    1
    51    26    44    1
    52    28    45    1
    53    29    46    1
    54    30    47    1
    55    31    48    1
