@<TRIPOS>MOLECULE
*****
 46 50 0 0 0
SMALL
GASTEIGER

@<TRIPOS>ATOM
      1 C           8.7088   -0.6242    0.4791 C.ar    1  UNL1       -0.0436
      2 C           7.9942   -1.7288    0.0343 C.ar    1  UNL1       -0.0583
      3 C           6.6018   -1.6731    0.0002 C.ar    1  UNL1       -0.0342
      4 C           5.9468   -0.5134    0.4144 C.ar    1  UNL1        0.0891
      5 C           4.4668   -0.4054    0.4233 C.ar    1  UNL1        0.0891
      6 C           3.8069    0.7769    0.7659 C.ar    1  UNL1       -0.0336
      7 C           2.4108    0.8138    0.7772 C.ar    1  UNL1       -0.0505
      8 C           1.6812   -0.3282    0.4559 C.ar    1  UNL1        0.0003
      9 C           0.2204   -0.3404    0.4778 C.ar    1  UNL1       -0.0161
     10 C          -0.4732   -0.8491    1.5735 C.ar    1  UNL1       -0.0522
     11 C          -1.8708   -0.8676    1.5782 C.ar    1  UNL1       -0.0397
     12 C          -2.6272   -0.3761    0.4965 C.ar    1  UNL1        0.0346
     13 C          -1.9357    0.1403   -0.6050 C.ar    1  UNL1       -0.0253
     14 C          -0.5229    0.1488   -0.6037 C.ar    1  UNL1       -0.0490
     15 C          -2.6502    0.6518   -1.8279 C.3     1  UNL1       -0.0219
     16 C          -3.6809    1.7192   -1.4868 C.3     1  UNL1       -0.0219
     17 C          -5.0016    1.1318   -1.0591 C.ar    1  UNL1       -0.0259
     18 C          -6.1719    1.6511   -1.6506 C.ar    1  UNL1       -0.0568
     19 C          -7.4335    1.1642   -1.3129 C.ar    1  UNL1       -0.0614
     20 C          -7.5464    0.1506   -0.3761 C.ar    1  UNL1       -0.0600
     21 C          -6.3967   -0.3556    0.2292 C.ar    1  UNL1       -0.0403
     22 C          -5.1092    0.1360   -0.0781 C.ar    1  UNL1        0.0345
     23 N          -4.0271   -0.4583    0.5974 N.pl3   1  UNL1       -0.3141
     24 C           2.4152   -1.4633    0.1231 C.ar    1  UNL1        0.0360
     25 N           3.7695   -1.5282    0.0960 N.ar    1  UNL1       -0.2528
     26 N           6.6478    0.5756    0.8463 N.ar    1  UNL1       -0.2534
     27 C           7.9975    0.4946    0.8687 C.ar    1  UNL1        0.0283
     28 H           9.7922   -0.6361    0.5210 H       1  UNL1        0.0633
     29 H           8.5107   -2.6348   -0.2785 H       1  UNL1        0.0619
     30 H           6.0320   -2.5292   -0.3477 H       1  UNL1        0.0639
     31 H           4.3720    1.6657    1.0298 H       1  UNL1        0.0640
     32 H           1.9014    1.7340    1.0489 H       1  UNL1        0.0625
     33 H           0.0675   -1.2350    2.4354 H       1  UNL1        0.0624
     34 H          -2.3711   -1.2770    2.4527 H       1  UNL1        0.0636
     35 H           0.0085    0.5403   -1.4681 H       1  UNL1        0.0627
     36 H          -1.9193    1.0989   -2.5100 H       1  UNL1        0.0317
     37 H          -3.0969   -0.1917   -2.3661 H       1  UNL1        0.0317
     38 H          -3.8353    2.3259   -2.3913 H       1  UNL1        0.0317
     39 H          -3.3187    2.4072   -0.7080 H       1  UNL1        0.0317
     40 H          -6.1020    2.4472   -2.3914 H       1  UNL1        0.0621
     41 H          -8.3207    1.5735   -1.7858 H       1  UNL1        0.0618
     42 H          -8.5231   -0.2463   -0.1123 H       1  UNL1        0.0618
     43 H          -6.5144   -1.1514    0.9563 H       1  UNL1        0.0636
     44 H          -4.3276   -0.9280    1.4461 H       1  UNL1        0.1522
     45 H           1.9150   -2.3910   -0.1410 H       1  UNL1        0.0836
     46 H           8.5090    1.3848    1.2232 H       1  UNL1        0.0830
@<TRIPOS>BOND
     1     1     2   ar
     2     2     3   ar
     3     3     4   ar
     4     4     5    1
     5     5     6   ar
     6     6     7   ar
     7     7     8   ar
     8     8     9    1
     9     9    10   ar
    10    10    11   ar
    11    11    12   ar
    12    12    13   ar
    13    13    14   ar
    14    13    15    1
    15    15    16    1
    16    16    17    1
    17    17    18   ar
    18    18    19   ar
    19    19    20   ar
    20    20    21   ar
    21    21    22   ar
    22    22    23    1
    23     8    24   ar
    24    24    25   ar
    25     4    26   ar
    26    26    27   ar
    27    27     1   ar
    28    25     5   ar
    29    14     9   ar
    30    22    17   ar
    31    23    12    1
    32     1    28    1
    33     2    29    1
    34     3    30    1
    35     6    31    1
    36     7    32    1
    37    10    33    1
    38    11    34    1
    39    14    35    1
    40    15    36    1
    41    15    37    1
    42    16    38    1
    43    16    39    1
    44    18    40    1
    45    19    41    1
    46    20    42    1
    47    21    43    1
    48    23    44    1
    49    24    45    1
    50    27    46    1
