@<TRIPOS>MOLECULE
*****
 41 45 0 0 0
SMALL
GASTEIGER

@<TRIPOS>ATOM
      1 C           8.0854    0.2718   -0.2155 C.ar    1  UNL1       -0.0436
      2 C           7.4748    1.2743    0.5238 C.ar    1  UNL1       -0.0583
      3 C           6.0944    1.2377    0.7133 C.ar    1  UNL1       -0.0342
      4 C           5.3475    0.1956    0.1582 C.ar    1  UNL1        0.0891
      5 C           3.8762    0.1027    0.3258 C.ar    1  UNL1        0.0891
      6 C           3.1299   -0.9402   -0.2240 C.ar    1  UNL1       -0.0336
      7 C           1.7463   -0.9787   -0.0349 C.ar    1  UNL1       -0.0505
      8 C           1.1071    0.0212    0.7019 C.ar    1  UNL1        0.0003
      9 C          -0.3449    0.0162    0.9236 C.ar    1  UNL1       -0.0146
     10 C          -0.8805    0.1160    2.2139 C.ar    1  UNL1       -0.0528
     11 C          -2.2632    0.1207    2.4165 C.ar    1  UNL1       -0.0456
     12 C          -3.1463    0.0207    1.3338 C.ar    1  UNL1        0.0339
     13 C          -2.6360   -0.1003    0.0327 C.ar    1  UNL1        0.0458
     14 C          -1.2417   -0.0852   -0.1549 C.ar    1  UNL1       -0.0317
     15 N          -3.4705   -0.1578   -1.0979 N.pl3   1  UNL1       -0.3127
     16 C          -4.8749   -0.2286   -1.1016 C.ar    1  UNL1        0.0453
     17 C          -5.5446   -0.3313   -2.3320 C.ar    1  UNL1       -0.0395
     18 C          -6.9390   -0.3648   -2.3921 C.ar    1  UNL1       -0.0599
     19 C          -7.6851   -0.2818   -1.2217 C.ar    1  UNL1       -0.0606
     20 C          -7.0356   -0.1590    0.0066 C.ar    1  UNL1       -0.0462
     21 C          -5.6342   -0.1243    0.0761 C.ar    1  UNL1        0.0339
     22 S          -4.8940    0.0477    1.6913 S.3     1  UNL1       -0.0857
     23 C           1.9295    1.0234    1.2125 C.ar    1  UNL1        0.0360
     24 N           3.2748    1.0880    1.0469 N.ar    1  UNL1       -0.2528
     25 N           5.9463   -0.7903   -0.5691 N.ar    1  UNL1       -0.2534
     26 C           7.2864   -0.7295   -0.7365 C.ar    1  UNL1        0.0283
     27 H           9.1565    0.2703   -0.3815 H       1  UNL1        0.0633
     28 H           8.0629    2.0809    0.9520 H       1  UNL1        0.0619
     29 H           5.6067    2.0180    1.2906 H       1  UNL1        0.0639
     30 H           3.6183   -1.7250   -0.7949 H       1  UNL1        0.0640
     31 H           1.1793   -1.8047   -0.4577 H       1  UNL1        0.0625
     32 H          -0.2255    0.1831    3.0809 H       1  UNL1        0.0624
     33 H          -2.6463    0.2036    3.4315 H       1  UNL1        0.0629
     34 H          -0.8449   -0.1395   -1.1671 H       1  UNL1        0.0642
     35 H          -3.0207   -0.4351   -1.9603 H       1  UNL1        0.1522
     36 H          -4.9806   -0.3843   -3.2596 H       1  UNL1        0.0636
     37 H          -7.4403   -0.4501   -3.3528 H       1  UNL1        0.0618
     38 H          -8.7710   -0.3054   -1.2623 H       1  UNL1        0.0618
     39 H          -7.6318   -0.0863    0.9136 H       1  UNL1        0.0629
     40 H           1.5138    1.8477    1.7878 H       1  UNL1        0.0836
     41 H           7.7154   -1.5375   -1.3224 H       1  UNL1        0.0830
@<TRIPOS>BOND
     1     1     2   ar
     2     2     3   ar
     3     3     4   ar
     4     4     5    1
     5     5     6   ar
     6     6     7   ar
     7     7     8   ar
     8     8     9    1
     9     9    10   ar
    10    10    11   ar
    11    11    12   ar
    12    12    13   ar
    13    13    14   ar
    14    13    15    1
    15    15    16    1
    16    16    17   ar
    17    17    18   ar
    18    18    19   ar
    19    19    20   ar
    20    20    21   ar
    21    21    22    1
    22     8    23   ar
    23    23    24   ar
    24     4    25   ar
    25    25    26   ar
    26    26     1   ar
    27    24     5   ar
    28    14     9   ar
    29    21    16   ar
    30    22    12    1
    31     1    27    1
    32     2    28    1
    33     3    29    1
    34     6    30    1
    35     7    31    1
    36    10    32    1
    37    11    33    1
    38    14    34    1
    39    15    35    1
    40    17    36    1
    41    18    37    1
    42    19    38    1
    43    20    39    1
    44    23    40    1
    45    26    41    1
