@<TRIPOS>MOLECULE
*****
 41 45 0 0 0
SMALL
GASTEIGER

@<TRIPOS>ATOM
      1 C          -8.1326    0.1424    0.0700 C.ar    1  UNL1       -0.0436
      2 C          -7.4480    1.3150    0.3545 C.ar    1  UNL1       -0.0583
      3 C          -6.0543    1.3124    0.3374 C.ar    1  UNL1       -0.0342
      4 C          -5.3685    0.1334    0.0351 C.ar    1  UNL1        0.0891
      5 C          -3.8865    0.0688    0.0017 C.ar    1  UNL1        0.0891
      6 C          -3.2000   -1.1118   -0.2832 C.ar    1  UNL1       -0.0336
      7 C          -1.8029   -1.1155   -0.3028 C.ar    1  UNL1       -0.0505
      8 C          -1.0895    0.0563   -0.0389 C.ar    1  UNL1        0.0003
      9 C           0.3797    0.0945   -0.0546 C.ar    1  UNL1       -0.0144
     10 C           1.0735    1.0659   -0.7786 C.ar    1  UNL1       -0.0533
     11 C           2.4712    1.0866   -0.7851 C.ar    1  UNL1       -0.0514
     12 C           3.2325    0.1341   -0.0658 C.ar    1  UNL1        0.0081
     13 C           2.5293   -0.8489    0.6660 C.ar    1  UNL1        0.0721
     14 C           1.1393   -0.8482    0.6563 C.ar    1  UNL1       -0.0280
     15 N           3.1385   -1.8005    1.3835 N.ar    1  UNL1       -0.2543
     16 C           4.4878   -1.8131    1.4024 C.ar    1  UNL1        0.0360
     17 C           5.2988   -0.9079    0.7292 C.ar    1  UNL1        0.0008
     18 C           6.7019   -0.9921    0.8018 C.ar    1  UNL1       -0.0526
     19 C           7.5040   -0.0796    0.1229 C.ar    1  UNL1       -0.0611
     20 C           6.9113    0.9225   -0.6325 C.ar    1  UNL1       -0.0611
     21 C           5.5173    1.0105   -0.7079 C.ar    1  UNL1       -0.0534
     22 C           4.6677    0.0991   -0.0302 C.ar    1  UNL1       -0.0073
     23 C          -1.8571    1.1857    0.2392 C.ar    1  UNL1        0.0360
     24 N          -3.2135    1.2226    0.2633 N.ar    1  UNL1       -0.2528
     25 N          -6.0402   -1.0197   -0.2450 N.ar    1  UNL1       -0.2534
     26 C          -7.3914   -0.9882   -0.2210 C.ar    1  UNL1        0.0283
     27 H          -9.2161    0.1098    0.0751 H       1  UNL1        0.0633
     28 H          -7.9890    2.2271    0.5890 H       1  UNL1        0.0619
     29 H          -5.5089    2.2251    0.5594 H       1  UNL1        0.0639
     30 H          -3.7442   -2.0286   -0.4926 H       1  UNL1        0.0640
     31 H          -1.2827   -2.0415   -0.5376 H       1  UNL1        0.0625
     32 H           0.5360    1.8120   -1.3614 H       1  UNL1        0.0624
     33 H           2.9562    1.8631   -1.3699 H       1  UNL1        0.0624
     34 H           0.6326   -1.6146    1.2420 H       1  UNL1        0.0645
     35 H           4.9146   -2.6117    2.0044 H       1  UNL1        0.0836
     36 H           7.1778   -1.7735    1.3910 H       1  UNL1        0.0624
     37 H           8.5867   -0.1514    0.1841 H       1  UNL1        0.0618
     38 H           7.5296    1.6399   -1.1664 H       1  UNL1        0.0618
     39 H           5.1038    1.8131   -1.3125 H       1  UNL1        0.0624
     40 H          -1.3858    2.1380    0.4717 H       1  UNL1        0.0836
     41 H          -7.8790   -1.9315   -0.4504 H       1  UNL1        0.0830
@<TRIPOS>BOND
     1     1     2   ar
     2     2     3   ar
     3     3     4   ar
     4     4     5    1
     5     5     6   ar
     6     6     7   ar
     7     7     8   ar
     8     8     9    1
     9     9    10   ar
    10    10    11   ar
    11    11    12   ar
    12    12    13   ar
    13    13    14   ar
    14    13    15   ar
    15    15    16   ar
    16    16    17   ar
    17    17    18   ar
    18    18    19   ar
    19    19    20   ar
    20    20    21   ar
    21    21    22   ar
    22     8    23   ar
    23    23    24   ar
    24     4    25   ar
    25    25    26   ar
    26    26     1   ar
    27    24     5   ar
    28    14     9   ar
    29    22    17   ar
    30    22    12   ar
    31     1    27    1
    32     2    28    1
    33     3    29    1
    34     6    30    1
    35     7    31    1
    36    10    32    1
    37    11    33    1
    38    14    34    1
    39    16    35    1
    40    18    36    1
    41    19    37    1
    42    20    38    1
    43    21    39    1
    44    23    40    1
    45    26    41    1
