@<TRIPOS>MOLECULE
*****
 40 44 0 0 0
SMALL
GASTEIGER

@<TRIPOS>ATOM
      1 C          -7.8582   -1.0728   -0.7805 C.ar    1  UNL1       -0.0436
      2 C          -7.0280   -2.0351   -0.2244 C.ar    1  UNL1       -0.0583
      3 C          -5.6782   -1.7442   -0.0348 C.ar    1  UNL1       -0.0342
      4 C          -5.1816   -0.4922   -0.4060 C.ar    1  UNL1        0.0891
      5 C          -3.7551   -0.1248   -0.2288 C.ar    1  UNL1        0.0891
      6 C          -3.2572    1.1240   -0.6017 C.ar    1  UNL1       -0.0336
      7 C          -1.9042    1.4169   -0.4127 C.ar    1  UNL1       -0.0505
      8 C          -1.0475    0.4660    0.1470 C.ar    1  UNL1        0.0004
      9 C           0.3815    0.7350    0.3612 C.ar    1  UNL1       -0.0127
     10 C           0.8064    1.8946    1.0364 C.ar    1  UNL1       -0.0503
     11 C           2.1648    2.1546    1.2445 C.ar    1  UNL1       -0.0151
     12 C           3.1190    1.2563    0.7774 C.ar    1  UNL1        0.1706
     13 C           2.7202    0.1042    0.1057 C.ar    1  UNL1        0.1712
     14 C           1.3643   -0.1573   -0.1020 C.ar    1  UNL1       -0.0079
     15 O           3.6221   -0.8112   -0.3766 O.3     1  UNL1       -0.4486
     16 C           4.9427   -0.5149   -0.1504 C.ar    1  UNL1        0.1706
     17 C           5.8963   -1.4160   -0.6218 C.ar    1  UNL1       -0.0156
     18 C           7.2530   -1.1588   -0.4161 C.ar    1  UNL1       -0.0581
     19 C           7.6520   -0.0033    0.2594 C.ar    1  UNL1       -0.0581
     20 C           6.6952    0.8976    0.7306 C.ar    1  UNL1       -0.0156
     21 C           5.3410    0.6387    0.5238 C.ar    1  UNL1        0.1706
     22 O           4.4384    1.5535    1.0050 O.3     1  UNL1       -0.4486
     23 C          -1.6308   -0.7520    0.4905 C.ar    1  UNL1        0.0360
     24 N          -2.9397   -1.0668    0.3191 N.ar    1  UNL1       -0.2528
     25 N          -5.9965    0.4547   -0.9525 N.ar    1  UNL1       -0.2534
     26 C          -7.3012    0.1452   -1.1249 C.ar    1  UNL1        0.0283
     27 H          -8.9125   -1.2665   -0.9415 H       1  UNL1        0.0633
     28 H          -7.4222   -3.0060    0.0614 H       1  UNL1        0.0619
     29 H          -5.0198   -2.4909    0.3999 H       1  UNL1        0.0639
     30 H          -3.9139    1.8694   -1.0416 H       1  UNL1        0.0640
     31 H          -1.5285    2.3899   -0.7203 H       1  UNL1        0.0625
     32 H           0.0750    2.6042    1.4199 H       1  UNL1        0.0625
     33 H           2.4733    3.0532    1.7714 H       1  UNL1        0.0656
     34 H           1.0817   -1.0584   -0.6423 H       1  UNL1        0.0662
     35 H           5.5846   -2.3142   -1.1472 H       1  UNL1        0.0655
     36 H           7.9996   -1.8592   -0.7824 H       1  UNL1        0.0619
     37 H           8.7090    0.1953    0.4187 H       1  UNL1        0.0619
     38 H           7.0041    1.7968    1.2560 H       1  UNL1        0.0655
     39 H          -1.0410   -1.5458    0.9438 H       1  UNL1        0.0836
     40 H          -7.9080    0.9322   -1.5636 H       1  UNL1        0.0830
@<TRIPOS>BOND
     1     1     2   ar
     2     2     3   ar
     3     3     4   ar
     4     4     5    1
     5     5     6   ar
     6     6     7   ar
     7     7     8   ar
     8     8     9    1
     9     9    10   ar
    10    10    11   ar
    11    11    12   ar
    12    12    13   ar
    13    13    14   ar
    14    13    15    1
    15    15    16    1
    16    16    17   ar
    17    17    18   ar
    18    18    19   ar
    19    19    20   ar
    20    20    21   ar
    21    21    22    1
    22     8    23   ar
    23    23    24   ar
    24     4    25   ar
    25    25    26   ar
    26    26     1   ar
    27    24     5   ar
    28    14     9   ar
    29    21    16   ar
    30    22    12    1
    31     1    27    1
    32     2    28    1
    33     3    29    1
    34     6    30    1
    35     7    31    1
    36    10    32    1
    37    11    33    1
    38    14    34    1
    39    17    35    1
    40    18    36    1
    41    19    37    1
    42    20    38    1
    43    23    39    1
    44    26    40    1
