@<TRIPOS>MOLECULE
*****
 39 43 0 0 0
SMALL
GASTEIGER

@<TRIPOS>ATOM
      1 C           6.4300    1.3390    0.7470 C.ar    1  UNL1       -0.0436
      2 C           5.4496    2.0438    1.4334 C.ar    1  UNL1       -0.0583
      3 C           4.1108    1.8582    1.0933 C.ar    1  UNL1       -0.0342
      4 C           3.7739    0.9643    0.0742 C.ar    1  UNL1        0.0891
      5 C           2.3675    0.7194   -0.3292 C.ar    1  UNL1        0.0891
      6 C           2.0221   -0.2470   -1.2778 C.ar    1  UNL1       -0.0336
      7 C           0.6812   -0.4430   -1.6115 C.ar    1  UNL1       -0.0505
      8 C          -0.3079    0.3323   -1.0054 C.ar    1  UNL1        0.0009
      9 C          -1.7197    0.1814   -1.3449 C.ar    1  UNL1       -0.0067
     10 C          -2.2189    0.6840   -2.5656 C.ar    1  UNL1       -0.0533
     11 C          -3.5680    0.5852   -2.8924 C.ar    1  UNL1       -0.0592
     12 C          -4.4701   -0.0195   -2.0140 C.ar    1  UNL1       -0.0377
     13 C          -3.9700   -0.5294   -0.8090 C.ar    1  UNL1        0.0481
     14 N          -4.6394   -1.1613    0.2136 N.ar    1  UNL1       -0.3529
     15 C          -3.7789   -1.5167    1.2202 C.ar    1  UNL1        0.0658
     16 C          -4.0269   -2.1649    2.4230 C.ar    1  UNL1        0.0514
     17 N          -2.9985   -2.4145    3.2630 N.ar    1  UNL1       -0.2612
     18 C          -1.7553   -2.0293    2.9012 C.ar    1  UNL1        0.0283
     19 C          -1.4400   -1.3780    1.7135 C.ar    1  UNL1       -0.0338
     20 C          -2.5024   -1.1016    0.8370 C.ar    1  UNL1        0.0109
     21 C          -2.6207   -0.4564   -0.4465 C.ar    1  UNL1        0.0152
     22 C           0.1228    1.2751   -0.0777 C.ar    1  UNL1        0.0360
     23 N           1.4143    1.4749    0.2838 N.ar    1  UNL1       -0.2528
     24 N           4.7348    0.2651   -0.5952 N.ar    1  UNL1       -0.2534
     25 C           6.0269    0.4710   -0.2522 C.ar    1  UNL1        0.0283
     26 H           7.4822    1.4643    0.9784 H       1  UNL1        0.0633
     27 H           5.7183    2.7450    2.2174 H       1  UNL1        0.0619
     28 H           3.3382    2.4163    1.6159 H       1  UNL1        0.0639
     29 H           2.7882   -0.8467   -1.7588 H       1  UNL1        0.0640
     30 H           0.4144   -1.2049   -2.3416 H       1  UNL1        0.0625
     31 H          -1.5419    1.1695   -3.2649 H       1  UNL1        0.0624
     32 H          -3.9239    0.9902   -3.8371 H       1  UNL1        0.0618
     33 H          -5.5241   -0.0908   -2.2652 H       1  UNL1        0.0638
     34 H          -5.6326   -1.3359    0.2139 H       1  UNL1        0.1659
     35 H          -5.0105   -2.4933    2.7407 H       1  UNL1        0.0851
     36 H          -0.9764   -2.2666    3.6225 H       1  UNL1        0.0830
     37 H          -0.4141   -1.1076    1.4932 H       1  UNL1        0.0639
     38 H          -0.5900    1.9240    0.4287 H       1  UNL1        0.0836
     39 H           6.7550   -0.0956   -0.8252 H       1  UNL1        0.0830
@<TRIPOS>BOND
     1     1     2   ar
     2     2     3   ar
     3     3     4   ar
     4     4     5    1
     5     5     6   ar
     6     6     7   ar
     7     7     8   ar
     8     8     9    1
     9     9    10   ar
    10    10    11   ar
    11    11    12   ar
    12    12    13   ar
    13    13    14   ar
    14    14    15   ar
    15    15    16   ar
    16    16    17   ar
    17    17    18   ar
    18    18    19   ar
    19    19    20   ar
    20    20    21   ar
    21     8    22   ar
    22    22    23   ar
    23     4    24   ar
    24    24    25   ar
    25    25     1   ar
    26    23     5   ar
    27    21     9   ar
    28    21    13   ar
    29    20    15   ar
    30     1    26    1
    31     2    27    1
    32     3    28    1
    33     6    29    1
    34     7    30    1
    35    10    31    1
    36    11    32    1
    37    12    33    1
    38    14    34    1
    39    16    35    1
    40    18    36    1
    41    19    37    1
    42    22    38    1
    43    25    39    1
