@<TRIPOS>MOLECULE
*****
 39 43 0 0 0
SMALL
GASTEIGER

@<TRIPOS>ATOM
      1 C           6.3372    1.6753    0.5897 C.ar    1  UNL1       -0.0436
      2 C           6.0687    0.3216    0.4479 C.ar    1  UNL1       -0.0583
      3 C           4.7822   -0.0849    0.0981 C.ar    1  UNL1       -0.0342
      4 C           3.7838    0.8719   -0.1002 C.ar    1  UNL1        0.0891
      5 C           2.3961    0.4999   -0.4710 C.ar    1  UNL1        0.0891
      6 C           1.4003    1.4557   -0.6773 C.ar    1  UNL1       -0.0336
      7 C           0.1084    1.0488   -1.0155 C.ar    1  UNL1       -0.0505
      8 C          -0.1863   -0.3096   -1.1405 C.ar    1  UNL1        0.0010
      9 C          -1.5218   -0.7761   -1.4955 C.ar    1  UNL1       -0.0051
     10 C          -1.8110   -1.2369   -2.7988 C.ar    1  UNL1       -0.0532
     11 C          -3.0892   -1.6703   -3.1550 C.ar    1  UNL1       -0.0577
     12 C          -4.1311   -1.6619   -2.2270 C.ar    1  UNL1       -0.0187
     13 C          -3.8260   -1.2107   -0.9439 C.ar    1  UNL1        0.1368
     14 O          -4.7191   -1.1369    0.0789 O.2     1  UNL1       -0.4548
     15 C          -4.0483   -0.6630    1.1614 C.ar    1  UNL1        0.1363
     16 C          -4.6120   -0.4432    2.4175 C.ar    1  UNL1       -0.0187
     17 C          -3.7584    0.0422    3.4119 C.ar    1  UNL1       -0.0582
     18 C          -2.4101    0.2855    3.1459 C.ar    1  UNL1       -0.0610
     19 C          -1.8720    0.0542    1.8708 C.ar    1  UNL1       -0.0504
     20 C          -2.7136   -0.4277    0.8470 C.ar    1  UNL1        0.0285
     21 C          -2.5668   -0.7736   -0.5374 C.ar    1  UNL1        0.0356
     22 C           0.8642   -1.1956   -0.9241 C.ar    1  UNL1        0.0360
     23 N           2.1282   -0.8295   -0.5966 N.ar    1  UNL1       -0.2528
     24 N           4.0456    2.2023    0.0421 N.ar    1  UNL1       -0.2534
     25 C           5.3029    2.5685    0.3778 C.ar    1  UNL1        0.0283
     26 H           7.3275    2.0258    0.8566 H       1  UNL1        0.0633
     27 H           6.8512   -0.4154    0.6031 H       1  UNL1        0.0619
     28 H           4.5623   -1.1427   -0.0184 H       1  UNL1        0.0639
     29 H           1.6233    2.5144   -0.5751 H       1  UNL1        0.0640
     30 H          -0.6631    1.7985   -1.1737 H       1  UNL1        0.0625
     31 H          -1.0243   -1.2467   -3.5533 H       1  UNL1        0.0624
     32 H          -3.2784   -2.0120   -4.1706 H       1  UNL1        0.0619
     33 H          -5.1317   -1.9895   -2.4830 H       1  UNL1        0.0654
     34 H          -5.6600   -0.6419    2.6060 H       1  UNL1        0.0654
     35 H          -4.1520    0.2308    4.4086 H       1  UNL1        0.0619
     36 H          -1.7637    0.6590    3.9382 H       1  UNL1        0.0618
     37 H          -0.8184    0.2446    1.6904 H       1  UNL1        0.0625
     38 H           0.7137   -2.2695   -1.0064 H       1  UNL1        0.0836
     39 H           5.4614    3.6387    0.4713 H       1  UNL1        0.0830
@<TRIPOS>BOND
     1     1     2   ar
     2     2     3   ar
     3     3     4   ar
     4     4     5    1
     5     5     6   ar
     6     6     7   ar
     7     7     8   ar
     8     8     9    1
     9     9    10   ar
    10    10    11   ar
    11    11    12   ar
    12    12    13   ar
    13    13    14   ar
    14    14    15   ar
    15    15    16   ar
    16    16    17   ar
    17    17    18   ar
    18    18    19   ar
    19    19    20   ar
    20    20    21   ar
    21     8    22   ar
    22    22    23   ar
    23     4    24   ar
    24    24    25   ar
    25    25     1   ar
    26    23     5   ar
    27    21     9   ar
    28    21    13   ar
    29    20    15   ar
    30     1    26    1
    31     2    27    1
    32     3    28    1
    33     6    29    1
    34     7    30    1
    35    10    31    1
    36    11    32    1
    37    12    33    1
    38    16    34    1
    39    17    35    1
    40    18    36    1
    41    19    37    1
    42    22    38    1
    43    25    39    1
