@<TRIPOS>MOLECULE
*****
 38 42 0 0 0
SMALL
GASTEIGER

@<TRIPOS>ATOM
      1 C           6.2717   -0.0087    1.5078 C.ar    1  UNL1       -0.0436
      2 C           5.8055   -1.0427    0.7092 C.ar    1  UNL1       -0.0583
      3 C           4.5106   -0.9794    0.1976 C.ar    1  UNL1       -0.0342
      4 C           3.7037    0.1215    0.4937 C.ar    1  UNL1        0.0891
      5 C           2.3177    0.2459   -0.0210 C.ar    1  UNL1        0.0891
      6 C           1.5196    1.3573    0.2561 C.ar    1  UNL1       -0.0336
      7 C           0.2206    1.4209   -0.2507 C.ar    1  UNL1       -0.0505
      8 C          -0.2783    0.3740   -1.0262 C.ar    1  UNL1        0.0010
      9 C          -1.6322    0.3999   -1.5657 C.ar    1  UNL1       -0.0050
     10 C          -1.8828    0.7824   -2.9005 C.ar    1  UNL1       -0.0532
     11 C          -3.1793    0.8229   -3.4171 C.ar    1  UNL1       -0.0577
     12 C          -4.2768    0.4868   -2.6238 C.ar    1  UNL1       -0.0186
     13 C          -4.0095    0.1091   -1.3088 C.ar    1  UNL1        0.1388
     14 O          -4.9561   -0.2470   -0.4028 O.2     1  UNL1       -0.4368
     15 C          -4.3121   -0.5536    0.7544 C.ar    1  UNL1        0.2284
     16 N          -4.9633   -0.9513    1.8637 N.ar    1  UNL1       -0.2205
     17 C          -4.1382   -1.2153    2.8986 C.ar    1  UNL1        0.0314
     18 C          -2.7546   -1.1073    2.8790 C.ar    1  UNL1       -0.0428
     19 C          -2.1236   -0.6895    1.7067 C.ar    1  UNL1       -0.0474
     20 C          -2.9354   -0.3961    0.5958 C.ar    1  UNL1        0.0482
     21 C          -2.7356    0.0474   -0.7498 C.ar    1  UNL1        0.0373
     22 C           0.5830   -0.6924   -1.2605 C.ar    1  UNL1        0.0360
     23 N           1.8488   -0.7814   -0.7826 N.ar    1  UNL1       -0.2528
     24 N           4.1600    1.1383    1.2791 N.ar    1  UNL1       -0.2534
     25 C           5.4193    1.0496    1.7627 C.ar    1  UNL1        0.0283
     26 H           7.2734   -0.0274    1.9214 H       1  UNL1        0.0633
     27 H           6.4401   -1.8948    0.4833 H       1  UNL1        0.0619
     28 H           4.1364   -1.7837   -0.4288 H       1  UNL1        0.0639
     29 H           1.9022    2.1723    0.8635 H       1  UNL1        0.0640
     30 H          -0.3963    2.2897   -0.0314 H       1  UNL1        0.0625
     31 H          -1.0505    1.0598   -3.5464 H       1  UNL1        0.0624
     32 H          -3.3382    1.1236   -4.4513 H       1  UNL1        0.0619
     33 H          -5.2912    0.5149   -3.0046 H       1  UNL1        0.0654
     34 H          -4.6457   -1.5386    3.8056 H       1  UNL1        0.0831
     35 H          -2.1729   -1.3454    3.7636 H       1  UNL1        0.0633
     36 H          -1.0428   -0.6013    1.6644 H       1  UNL1        0.0626
     37 H           0.2671   -1.5443   -1.8588 H       1  UNL1        0.0836
     38 H           5.7358    1.8837    2.3828 H       1  UNL1        0.0830
@<TRIPOS>BOND
     1     1     2   ar
     2     2     3   ar
     3     3     4   ar
     4     4     5    1
     5     5     6   ar
     6     6     7   ar
     7     7     8   ar
     8     8     9    1
     9     9    10   ar
    10    10    11   ar
    11    11    12   ar
    12    12    13   ar
    13    13    14   ar
    14    14    15   ar
    15    15    16   ar
    16    16    17   ar
    17    17    18   ar
    18    18    19   ar
    19    19    20   ar
    20    20    21   ar
    21     8    22   ar
    22    22    23   ar
    23     4    24   ar
    24    24    25   ar
    25    25     1   ar
    26    23     5   ar
    27    21     9   ar
    28    21    13   ar
    29    20    15   ar
    30     1    26    1
    31     2    27    1
    32     3    28    1
    33     6    29    1
    34     7    30    1
    35    10    31    1
    36    11    32    1
    37    12    33    1
    38    17    34    1
    39    18    35    1
    40    19    36    1
    41    22    37    1
    42    25    38    1
