@<TRIPOS>MOLECULE
*****
 38 42 0 0 0
SMALL
GASTEIGER

@<TRIPOS>ATOM
      1 C           6.2811    1.0860   -0.0695 C.ar    1  UNL1       -0.0436
      2 C           5.8764   -0.2049   -0.3776 C.ar    1  UNL1       -0.0583
      3 C           4.5206   -0.4692   -0.5622 C.ar    1  UNL1       -0.0342
      4 C           3.5927    0.5686   -0.4431 C.ar    1  UNL1        0.0891
      5 C           2.1374    0.3563   -0.6406 C.ar    1  UNL1        0.0891
      6 C           1.2227    1.4104   -0.6060 C.ar    1  UNL1       -0.0336
      7 C          -0.1363    1.1560   -0.7973 C.ar    1  UNL1       -0.0505
      8 C          -0.5770   -0.1491   -1.0205 C.ar    1  UNL1        0.0009
      9 C          -1.9888   -0.4531   -1.2418 C.ar    1  UNL1       -0.0076
     10 C          -2.4470   -0.6618   -2.5591 C.ar    1  UNL1       -0.0533
     11 C          -3.7822   -0.9160   -2.8221 C.ar    1  UNL1       -0.0601
     12 C          -4.7013   -0.9575   -1.7804 C.ar    1  UNL1       -0.0473
     13 C          -4.2567   -0.7553   -0.4578 C.ar    1  UNL1        0.0225
     14 S          -5.2587   -0.7584    0.9386 S.2     1  UNL1       -0.0687
     15 C          -3.9488   -0.4848    1.9735 C.ar    1  UNL1        0.1093
     16 N          -4.1548   -0.3903    3.3059 N.ar    1  UNL1       -0.2478
     17 C          -3.0376   -0.1926    4.0277 C.ar    1  UNL1        0.0289
     18 C          -1.7630   -0.0933    3.5081 C.ar    1  UNL1       -0.0429
     19 C          -1.5983   -0.1924    2.1278 C.ar    1  UNL1       -0.0500
     20 C          -2.7341   -0.3882    1.3023 C.ar    1  UNL1        0.0160
     21 C          -2.9101   -0.5170   -0.1451 C.ar    1  UNL1        0.0062
     22 C           0.4000   -1.1392   -1.0506 C.ar    1  UNL1        0.0360
     23 N           1.7258   -0.9216   -0.8663 N.ar    1  UNL1       -0.2528
     24 N           3.9890    1.8384   -0.1437 N.ar    1  UNL1       -0.2534
     25 C           5.3096    2.0649    0.0345 C.ar    1  UNL1        0.0283
     26 H           7.3282    1.3253    0.0749 H       1  UNL1        0.0633
     27 H           6.6100   -1.0000   -0.4869 H       1  UNL1        0.0619
     28 H           4.1934   -1.4756   -0.8082 H       1  UNL1        0.0639
     29 H           1.5627    2.4291   -0.4370 H       1  UNL1        0.0640
     30 H          -0.8433    1.9803   -0.7597 H       1  UNL1        0.0625
     31 H          -1.7447   -0.6142   -3.3905 H       1  UNL1        0.0624
     32 H          -4.1162   -1.0730   -3.8458 H       1  UNL1        0.0618
     33 H          -5.7527   -1.1443   -1.9854 H       1  UNL1        0.0629
     34 H          -3.2002   -0.1130    5.1008 H       1  UNL1        0.0830
     35 H          -0.9089    0.0594    4.1588 H       1  UNL1        0.0633
     36 H          -0.5981   -0.1250    1.7139 H       1  UNL1        0.0625
     37 H           0.1353   -2.1788   -1.2278 H       1  UNL1        0.0836
     38 H           5.5742    3.0936    0.2582 H       1  UNL1        0.0830
@<TRIPOS>BOND
     1     1     2   ar
     2     2     3   ar
     3     3     4   ar
     4     4     5    1
     5     5     6   ar
     6     6     7   ar
     7     7     8   ar
     8     8     9    1
     9     9    10   ar
    10    10    11   ar
    11    11    12   ar
    12    12    13   ar
    13    13    14   ar
    14    14    15   ar
    15    15    16   ar
    16    16    17   ar
    17    17    18   ar
    18    18    19   ar
    19    19    20   ar
    20    20    21   ar
    21     8    22   ar
    22    22    23   ar
    23     4    24   ar
    24    24    25   ar
    25    25     1   ar
    26    23     5   ar
    27    21     9   ar
    28    21    13   ar
    29    20    15   ar
    30     1    26    1
    31     2    27    1
    32     3    28    1
    33     6    29    1
    34     7    30    1
    35    10    31    1
    36    11    32    1
    37    12    33    1
    38    17    34    1
    39    18    35    1
    40    19    36    1
    41    22    37    1
    42    25    38    1
