@<TRIPOS>MOLECULE
*****
 28 30 0 0 0
SMALL
GASTEIGER

@<TRIPOS>ATOM
      1 C           5.4939   -0.4060    0.0283 C.ar    1  UNL1       -0.0436
      2 C           4.9271    0.8515    0.1766 C.ar    1  UNL1       -0.0583
      3 C           3.5394    0.9801    0.1609 C.ar    1  UNL1       -0.0342
      4 C           2.7416   -0.1549   -0.0032 C.ar    1  UNL1        0.0891
      5 C           1.2607   -0.0810   -0.0281 C.ar    1  UNL1        0.0891
      6 C           0.4607   -1.2093   -0.1914 C.ar    1  UNL1       -0.0336
      7 C          -0.9334   -1.0813   -0.2073 C.ar    1  UNL1       -0.0490
      8 C          -1.5441    0.1707   -0.0608 C.ar    1  UNL1        0.0202
      9 C          -3.0062    0.3820   -0.0676 C.ar    1  UNL1        0.0947
     10 C          -3.9531   -0.6275   -0.2191 C.ar    1  UNL1       -0.0324
     11 C          -5.3096   -0.3087   -0.2096 C.ar    1  UNL1       -0.0398
     12 C          -5.6711    1.0107   -0.0487 C.ar    1  UNL1        0.0500
     13 N          -4.7580    1.9838    0.0973 N.ar    1  UNL1       -0.1571
     14 N          -3.4226    1.6624    0.0871 N.ar    1  UNL1       -0.1492
     15 C          -0.6567    1.2384    0.0968 C.ar    1  UNL1        0.0375
     16 N           0.7009    1.1472    0.1165 N.ar    1  UNL1       -0.2528
     17 N           3.2969   -1.3920   -0.1491 N.ar    1  UNL1       -0.2534
     18 C           4.6455   -1.4867   -0.1300 C.ar    1  UNL1        0.0283
     19 H           6.5694   -0.5408    0.0359 H       1  UNL1        0.0633
     20 H           5.5545    1.7289    0.3037 H       1  UNL1        0.0619
     21 H           3.0853    1.9604    0.2761 H       1  UNL1        0.0639
     22 H           0.9135   -2.1905   -0.3068 H       1  UNL1        0.0640
     23 H          -1.5148   -1.9889   -0.3372 H       1  UNL1        0.0625
     24 H          -3.6677   -1.6651   -0.3456 H       1  UNL1        0.0640
     25 H          -6.0642   -1.0785   -0.3258 H       1  UNL1        0.0634
     26 H          -6.7065    1.3293   -0.0318 H       1  UNL1        0.0848
     27 H          -1.0209    2.2577    0.2191 H       1  UNL1        0.0836
     28 H           5.0394   -2.4919   -0.2499 H       1  UNL1        0.0830
@<TRIPOS>BOND
     1     1     2   ar
     2     2     3   ar
     3     3     4   ar
     4     4     5    1
     5     5     6   ar
     6     6     7   ar
     7     7     8   ar
     8     8     9    1
     9     9    10   ar
    10    10    11   ar
    11    11    12   ar
    12    12    13   ar
    13    13    14   ar
    14     8    15   ar
    15    15    16   ar
    16     4    17   ar
    17    17    18   ar
    18    18     1   ar
    19    16     5   ar
    20    14     9   ar
    21     1    19    1
    22     2    20    1
    23     3    21    1
    24     6    22    1
    25     7    23    1
    26    10    24    1
    27    11    25    1
    28    12    26    1
    29    15    27    1
    30    18    28    1
