@<TRIPOS>MOLECULE
*****
 27 29 0 0 0
SMALL
GASTEIGER

@<TRIPOS>ATOM
      1 C           5.1405    0.5051    0.6981 C.ar    1  UNL1       -0.0436
      2 C           4.6232    0.8269   -0.5483 C.ar    1  UNL1       -0.0583
      3 C           3.2462    0.7605   -0.7533 C.ar    1  UNL1       -0.0342
      4 C           2.4090    0.3719    0.2954 C.ar    1  UNL1        0.0891
      5 C           0.9365    0.2813    0.1381 C.ar    1  UNL1        0.0891
      6 C           0.0997   -0.1092    1.1849 C.ar    1  UNL1       -0.0336
      7 C          -1.2816   -0.1790    0.9835 C.ar    1  UNL1       -0.0504
      8 C          -1.8211    0.1380   -0.2623 C.ar    1  UNL1        0.0032
      9 C          -3.2460    0.0709   -0.5298 C.ar    1  UNL1        0.0208
     10 C          -3.9548   -0.0803   -1.7460 C.ar    1  UNL1        0.0569
     11 N          -5.2795   -0.0819   -1.5775 N.ar    1  UNL1       -0.1817
     12 N          -5.4282    0.0633   -0.2523 N.ar    1  UNL1       -0.2841
     13 C          -4.2434    0.1665    0.4188 C.ar    1  UNL1        0.0301
     14 C          -0.9191    0.5157   -1.2515 C.ar    1  UNL1        0.0361
     15 N           0.4261    0.5946   -1.0846 N.ar    1  UNL1       -0.2528
     16 N           2.9158    0.0562    1.5214 N.ar    1  UNL1       -0.2534
     17 C           4.2550    0.1297    1.6917 C.ar    1  UNL1        0.0283
     18 H           6.2065    0.5466    0.8907 H       1  UNL1        0.0633
     19 H           5.2814    1.1273   -1.3585 H       1  UNL1        0.0619
     20 H           2.8315    1.0103   -1.7258 H       1  UNL1        0.0639
     21 H           0.5162   -0.3628    2.1560 H       1  UNL1        0.0640
     22 H          -1.9128   -0.4976    1.8081 H       1  UNL1        0.0625
     23 H          -3.5624   -0.1950   -2.7487 H       1  UNL1        0.0854
     24 H          -6.3692    0.0903    0.1264 H       1  UNL1        0.1882
     25 H          -4.2265    0.3059    1.4903 H       1  UNL1        0.0830
     26 H          -1.2522    0.7885   -2.2493 H       1  UNL1        0.0836
     27 H           4.6091   -0.1331    2.6845 H       1  UNL1        0.0830
@<TRIPOS>BOND
     1     1     2   ar
     2     2     3   ar
     3     3     4   ar
     4     4     5    1
     5     5     6   ar
     6     6     7   ar
     7     7     8   ar
     8     8     9    1
     9     9    10   ar
    10    10    11   ar
    11    11    12   ar
    12    12    13   ar
    13     8    14   ar
    14    14    15   ar
    15     4    16   ar
    16    16    17   ar
    17    17     1   ar
    18    15     5   ar
    19    13     9   ar
    20     1    18    1
    21     2    19    1
    22     3    20    1
    23     6    21    1
    24     7    22    1
    25    10    23    1
    26    12    24    1
    27    13    25    1
    28    14    26    1
    29    17    27    1
