@<TRIPOS>MOLECULE
*****
 43 50 0 0 0
SMALL
GASTEIGER

@<TRIPOS>ATOM
      1 SI         -1.1689    5.1374    0.0391 Si      1  UNL1        0.0000
      2 C           0.3083    4.0083   -0.0304 C.2     1  UNL1        0.0000
      3 C          -0.0626    2.7124   -0.0503 C.ar    1  UNL1        0.0000
      4 C           0.8098    1.5778   -0.1024 C.ar    1  UNL1        0.0000
      5 C           2.2336    1.5614   -0.1440 C.ar    1  UNL1        0.0000
      6 C           2.7669    0.2793   -0.1898 C.ar    1  UNL1        0.0000
      7 S           1.4924   -0.8717   -0.1801 S.2     1  UNL1        0.0000
      8 C           0.2664    0.3074   -0.1168 C.ar    1  UNL1        0.0000
      9 C          -1.1818    0.0033   -0.0821 C.ar    1  UNL1        0.0000
     10 C          -1.6842   -1.3044   -0.0985 C.ar    1  UNL1        0.0000
     11 C          -3.0753   -1.5391   -0.0638 C.ar    1  UNL1        0.0000
     12 C          -3.6393   -2.8607   -0.0788 C.ar    1  UNL1        0.0000
     13 N          -2.9682   -4.0263   -0.1258 N.ar    1  UNL1        0.0000
     14 S          -4.1059   -5.2335   -0.1215 S.2     1  UNL1        0.0000
     15 N          -5.5054   -4.3430   -0.0599 N.ar    1  UNL1        0.0000
     16 C          -5.1334   -3.0540   -0.0401 C.ar    1  UNL1        0.0000
     17 C          -6.0098   -1.9478    0.0115 C.ar    1  UNL1        0.0000
     18 C          -5.4049   -0.6766    0.0241 C.ar    1  UNL1        0.0000
     19 C          -3.9988   -0.4603   -0.0115 C.ar    1  UNL1        0.0000
     20 C          -3.4787    0.8428    0.0043 C.ar    1  UNL1        0.0000
     21 C          -2.0925    1.0943   -0.0299 C.ar    1  UNL1        0.0000
     22 C          -1.5337    2.4793   -0.0133 C.ar    1  UNL1        0.0000
     23 C          -2.2613    3.6172    0.0347 C.2     1  UNL1        0.0000
     24 C           4.1747   -0.0750   -0.2389 C.ar    1  UNL1        0.0000
     25 S           5.4132    1.1551   -0.2454 S.2     1  UNL1        0.0000
     26 C           6.7021    0.0300   -0.3094 C.ar    1  UNL1        0.0000
     27 C           6.1671   -1.2078   -0.3233 C.ar    1  UNL1        0.0000
     28 C           6.7642   -2.4884   -0.3710 C.ar    1  UNL1        0.0000
     29 C           5.8197   -3.5169   -0.3681 C.ar    1  UNL1        0.0000
     30 S           4.1387   -3.0248   -0.3079 S.2     1  UNL1        0.0000
     31 C           4.7727   -1.3179   -0.2857 C.ar    1  UNL1        0.0000
     32 H          -1.3301    5.9460   -1.1927 H       1  UNL1        0.0000
     33 H          -1.2575    5.8866    1.3150 H       1  UNL1        0.0000
     34 H           1.3108    4.4036   -0.0501 H       1  UNL1        0.0000
     35 H           2.8398    2.4582   -0.1403 H       1  UNL1        0.0000
     36 H          -1.0137   -2.1601   -0.1382 H       1  UNL1        0.0000
     37 H          -7.0850   -2.0764    0.0396 H       1  UNL1        0.0000
     38 H          -6.0703    0.1882    0.0638 H       1  UNL1        0.0000
     39 H          -4.1737    1.6778    0.0442 H       1  UNL1        0.0000
     40 H          -3.3313    3.7322    0.0684 H       1  UNL1        0.0000
     41 H           7.7358    0.3449   -0.3318 H       1  UNL1        0.0000
     42 H           7.8298   -2.6797   -0.4063 H       1  UNL1        0.0000
     43 H           6.0202   -4.5793   -0.3991 H       1  UNL1        0.0000
@<TRIPOS>BOND
     1     1     2    1
     2     2     3    2
     3     3     4   ar
     4     4     5   ar
     5     5     6   ar
     6     6     7   ar
     7     7     8   ar
     8     8     9   ar
     9     9    10   ar
    10    10    11   ar
    11    11    12   ar
    12    12    13   ar
    13    13    14   ar
    14    14    15   ar
    15    15    16   ar
    16    16    17   ar
    17    17    18   ar
    18    18    19   ar
    19    19    20   ar
    20    20    21   ar
    21    21    22   ar
    22    22    23    2
    23     6    24    1
    24    24    25   ar
    25    25    26   ar
    26    26    27   ar
    27    27    28   ar
    28    28    29   ar
    29    29    30   ar
    30    30    31   ar
    31    23     1    1
    32    31    24   ar
    33    22     3   ar
    34    31    27   ar
    35     8     4   ar
    36    21     9   ar
    37    19    11   ar
    38    16    12   ar
    39     1    32    1
    40     1    33    1
    41     2    34    1
    42     5    35    1
    43    10    36    1
    44    17    37    1
    45    18    38    1
    46    20    39    1
    47    23    40    1
    48    26    41    1
    49    28    42    1
    50    29    43    1
