@<TRIPOS>MOLECULE
*****
 37 41 0 0 0
SMALL
GASTEIGER

@<TRIPOS>ATOM
      1 C          -7.1302    1.2318    0.6218 C.ar    1  UNL1       -0.0436
      2 C          -6.2151    2.2075    0.2542 C.ar    1  UNL1       -0.0583
      3 C          -4.8828    1.8515    0.0515 C.ar    1  UNL1       -0.0342
      4 C          -4.4892    0.5219    0.2208 C.ar    1  UNL1        0.0891
      5 C          -3.0869    0.0814    0.0192 C.ar    1  UNL1        0.0891
      6 C          -2.6959   -1.2489    0.1731 C.ar    1  UNL1       -0.0336
      7 C          -1.3610   -1.6089   -0.0283 C.ar    1  UNL1       -0.0505
      8 C          -0.4159   -0.6431   -0.3830 C.ar    1  UNL1        0.0017
      9 C           0.9954   -0.9780   -0.6004 C.ar    1  UNL1        0.0023
     10 C           1.3828   -2.0099   -1.4539 C.ar    1  UNL1        0.0366
     11 N           2.6491   -2.4003   -1.7217 N.ar    1  UNL1       -0.2472
     12 C           3.5936   -1.6878   -1.0742 C.ar    1  UNL1        0.1107
     13 S           5.2424   -2.0404   -1.2915 S.2     1  UNL1       -0.0490
     14 C           5.7048   -0.8033   -0.2203 C.ar    1  UNL1        0.1107
     15 N           7.0097   -0.5736    0.0399 N.ar    1  UNL1       -0.2478
     16 C           7.2312    0.4340    0.9062 C.ar    1  UNL1        0.0289
     17 C           6.2515    1.2024    1.5092 C.ar    1  UNL1       -0.0429
     18 C           4.9170    0.9338    1.2140 C.ar    1  UNL1       -0.0500
     19 C           4.6197   -0.1120    0.3114 C.ar    1  UNL1        0.0169
     20 C           3.3745   -0.6335   -0.1948 C.ar    1  UNL1        0.0175
     21 C           2.0257   -0.2759    0.0414 C.ar    1  UNL1       -0.0422
     22 C          -0.8951    0.6586   -0.5170 C.ar    1  UNL1        0.0361
     23 N          -2.1830    1.0386   -0.3263 N.ar    1  UNL1       -0.2528
     24 N          -5.3873   -0.4381    0.5822 N.ar    1  UNL1       -0.2534
     25 C          -6.6727   -0.0645    0.7719 C.ar    1  UNL1        0.0283
     26 H          -8.1737    1.4748    0.7868 H       1  UNL1        0.0633
     27 H          -6.5302    3.2388    0.1243 H       1  UNL1        0.0619
     28 H          -4.1589    2.6082   -0.2372 H       1  UNL1        0.0639
     29 H          -3.4229   -2.0070    0.4523 H       1  UNL1        0.0640
     30 H          -1.0729   -2.6489    0.1100 H       1  UNL1        0.0625
     31 H           0.6322   -2.5875   -1.9927 H       1  UNL1        0.0836
     32 H           8.2816    0.6221    1.1188 H       1  UNL1        0.0830
     33 H           6.5202    1.9968    2.1975 H       1  UNL1        0.0633
     34 H           4.1253    1.5193    1.6719 H       1  UNL1        0.0625
     35 H           1.7991    0.5323    0.7322 H       1  UNL1        0.0631
     36 H          -0.2334    1.4730   -0.8040 H       1  UNL1        0.0836
     37 H          -7.3487   -0.8653    1.0582 H       1  UNL1        0.0830
@<TRIPOS>BOND
     1     1     2   ar
     2     2     3   ar
     3     3     4   ar
     4     4     5    1
     5     5     6   ar
     6     6     7   ar
     7     7     8   ar
     8     8     9    1
     9     9    10   ar
    10    10    11   ar
    11    11    12   ar
    12    12    13   ar
    13    13    14   ar
    14    14    15   ar
    15    15    16   ar
    16    16    17   ar
    17    17    18   ar
    18    18    19   ar
    19    19    20   ar
    20    20    21   ar
    21     8    22   ar
    22    22    23   ar
    23     4    24   ar
    24    24    25   ar
    25    25     1   ar
    26    23     5   ar
    27    21     9   ar
    28    20    12   ar
    29    19    14   ar
    30     1    26    1
    31     2    27    1
    32     3    28    1
    33     6    29    1
    34     7    30    1
    35    10    31    1
    36    16    32    1
    37    17    33    1
    38    18    34    1
    39    21    35    1
    40    22    36    1
    41    25    37    1
