@<TRIPOS>MOLECULE
*****
 38 42 0 0 0
SMALL
GASTEIGER

@<TRIPOS>ATOM
      1 C           6.8312    0.9810    0.9043 C.ar    1  UNL1       -0.0436
      2 C           6.3388   -0.2390    1.3446 C.ar    1  UNL1       -0.0583
      3 C           5.0239   -0.5917    1.0460 C.ar    1  UNL1       -0.0342
      4 C           4.2234    0.2851    0.3099 C.ar    1  UNL1        0.0891
      5 C           2.8171   -0.0333   -0.0391 C.ar    1  UNL1        0.0891
      6 C           2.0311    0.8230   -0.8117 C.ar    1  UNL1       -0.0336
      7 C           0.7118    0.4748   -1.1079 C.ar    1  UNL1       -0.0504
      8 C           0.1793   -0.7251   -0.6322 C.ar    1  UNL1        0.0037
      9 C          -1.1944   -1.1212   -0.9123 C.ar    1  UNL1        0.0256
     10 C          -1.5342   -2.2562   -1.6498 C.ar    1  UNL1        0.0373
     11 N          -2.7929   -2.6641   -1.9343 N.ar    1  UNL1       -0.2619
     12 C          -3.8354   -1.9281   -1.4809 C.ar    1  UNL1        0.0374
     13 C          -3.6162   -0.7699   -0.7244 C.ar    1  UNL1        0.0275
     14 C          -2.3001   -0.3895   -0.4529 C.ar    1  UNL1        0.0583
     15 N          -2.3653    0.7537    0.3146 N.ar    1  UNL1       -0.3535
     16 C          -3.6687    1.1310    0.5270 C.ar    1  UNL1        0.0504
     17 C          -4.1956    2.2123    1.2298 C.ar    1  UNL1       -0.0196
     18 C          -5.5802    2.2834    1.2417 C.ar    1  UNL1        0.0295
     19 N          -6.4062    1.4014    0.6375 N.ar    1  UNL1       -0.2625
     20 C          -5.8683    0.3563   -0.0388 C.ar    1  UNL1        0.0373
     21 C          -4.4787    0.1939   -0.1127 C.ar    1  UNL1        0.0269
     22 C           1.0324   -1.5223    0.1255 C.ar    1  UNL1        0.0361
     23 N           2.3157   -1.2088    0.4306 N.ar    1  UNL1       -0.2528
     24 N           4.7050    1.4851   -0.1224 N.ar    1  UNL1       -0.2534
     25 C           5.9842    1.8008    0.1811 C.ar    1  UNL1        0.0283
     26 H           7.8494    1.2853    1.1187 H       1  UNL1        0.0633
     27 H           6.9688   -0.9149    1.9157 H       1  UNL1        0.0619
     28 H           4.6295   -1.5452    1.3856 H       1  UNL1        0.0639
     29 H           2.4419    1.7554   -1.1896 H       1  UNL1        0.0640
     30 H           0.1134    1.1420   -1.7248 H       1  UNL1        0.0625
     31 H          -0.7585   -2.8992   -2.0621 H       1  UNL1        0.0836
     32 H          -4.8251   -2.2912   -1.7348 H       1  UNL1        0.0836
     33 H          -1.5588    1.2446    0.6753 H       1  UNL1        0.1659
     34 H          -3.5795    2.9462    1.7326 H       1  UNL1        0.0653
     35 H          -6.0845    3.0925    1.7646 H       1  UNL1        0.0830
     36 H          -6.5709   -0.3249   -0.5052 H       1  UNL1        0.0836
     37 H           0.6952   -2.4714    0.5372 H       1  UNL1        0.0836
     38 H           6.3216    2.7658   -0.1866 H       1  UNL1        0.0830
@<TRIPOS>BOND
     1     1     2   ar
     2     2     3   ar
     3     3     4   ar
     4     4     5    1
     5     5     6   ar
     6     6     7   ar
     7     7     8   ar
     8     8     9    1
     9     9    10   ar
    10    10    11   ar
    11    11    12   ar
    12    12    13   ar
    13    13    14   ar
    14    14    15   ar
    15    15    16   ar
    16    16    17   ar
    17    17    18   ar
    18    18    19   ar
    19    19    20   ar
    20    20    21   ar
    21     8    22   ar
    22    22    23   ar
    23     4    24   ar
    24    24    25   ar
    25    25     1   ar
    26    23     5   ar
    27    14     9   ar
    28    21    16   ar
    29    21    13   ar
    30     1    26    1
    31     2    27    1
    32     3    28    1
    33     6    29    1
    34     7    30    1
    35    10    31    1
    36    12    32    1
    37    15    33    1
    38    17    34    1
    39    18    35    1
    40    20    36    1
    41    22    37    1
    42    25    38    1
