@<TRIPOS>MOLECULE
*****
 109 123 0 0 0
SMALL
GASTEIGER

@<TRIPOS>ATOM
      1 C          -3.9156    5.4321    6.6784 C.ar    1  UNL1       -0.0617
      2 C          -3.0582    6.2008    5.8910 C.ar    1  UNL1       -0.0612
      3 C          -2.4005    5.6255    4.7978 C.ar    1  UNL1       -0.0540
      4 C          -2.5968    4.2755    4.4707 C.ar    1  UNL1       -0.0179
      5 C          -1.9101    3.6556    3.3276 C.ar    1  UNL1       -0.0178
      6 C          -0.5109    3.6540    3.2215 C.ar    1  UNL1       -0.0534
      7 C           0.1411    2.9791    2.1747 C.ar    1  UNL1       -0.0505
      8 C          -0.5834    2.2787    1.1978 C.ar    1  UNL1        0.0194
      9 C           0.0745    1.4640    0.1563 C.ar    1  UNL1        0.1672
     10 N          -0.7050    0.6055   -0.5063 N.ar    1  UNL1       -0.1919
     11 C          -0.1020   -0.1483   -1.4218 C.ar    1  UNL1        0.2407
     12 N          -0.9242   -0.6467   -2.4958 N.ar    1  UNL1       -0.2757
     13 C          -0.4671   -0.9590   -3.7839 C.ar    1  UNL1        0.0578
     14 C           0.7932   -1.3701   -4.2641 C.ar    1  UNL1       -0.0371
     15 C           0.9959   -1.4173   -5.6456 C.ar    1  UNL1       -0.0598
     16 C          -0.0164   -1.0669   -6.5307 C.ar    1  UNL1       -0.0611
     17 C          -1.2687   -0.6691   -6.0550 C.ar    1  UNL1       -0.0520
     18 C          -1.5097   -0.6233   -4.6649 C.ar    1  UNL1        0.0081
     19 C          -2.6489   -0.2834   -3.8777 C.ar    1  UNL1        0.0101
     20 C          -3.9574    0.1863   -4.1271 C.ar    1  UNL1       -0.0513
     21 C          -4.8874    0.4302   -3.0736 C.ar    1  UNL1       -0.0513
     22 C          -4.6192    0.0731   -1.7312 C.ar    1  UNL1        0.0100
     23 C          -5.2859    0.2121   -0.4825 C.ar    1  UNL1        0.0080
     24 C          -6.4884    0.8458   -0.1019 C.ar    1  UNL1       -0.0520
     25 C          -6.9212    0.7895    1.2231 C.ar    1  UNL1       -0.0611
     26 C          -6.1913    0.0826    2.1670 C.ar    1  UNL1       -0.0598
     27 C          -5.0054   -0.5686    1.8156 C.ar    1  UNL1       -0.0372
     28 C          -4.5259   -0.4641    0.4909 C.ar    1  UNL1        0.0550
     29 N          -3.4134   -1.0163   -0.1656 N.ar    1  UNL1       -0.3068
     30 C          -2.5889   -2.0793    0.3151 C.ar    1  UNL1        0.0473
     31 C          -2.2161   -2.1662    1.6591 C.ar    1  UNL1       -0.0378
     32 C          -1.5454   -3.2996    2.1280 C.ar    1  UNL1       -0.0598
     33 C          -1.2002   -4.3274    1.2538 C.ar    1  UNL1       -0.0616
     34 C          -1.5258   -4.2276   -0.0945 C.ar    1  UNL1       -0.0598
     35 C          -2.2217   -3.1120   -0.5632 C.ar    1  UNL1       -0.0378
     36 C          -3.4036   -0.5136   -1.4521 C.ar    1  UNL1        0.0794
     37 C          -2.3000   -0.5410   -2.5662 C.ar    1  UNL1        0.0821
     38 N           1.2207   -0.2067   -1.5554 N.ar    1  UNL1       -0.1755
     39 C           1.9145    0.7289   -0.8939 C.ar    1  UNL1        0.2407
     40 N           3.3007    0.8109   -1.2371 N.ar    1  UNL1       -0.2757
     41 C           3.9798    1.9601   -1.6373 C.ar    1  UNL1        0.0578
     42 C           3.6825    3.3250   -1.4742 C.ar    1  UNL1       -0.0371
     43 C           4.5049    4.2639   -2.1056 C.ar    1  UNL1       -0.0598
     44 C           5.5764    3.8634   -2.8952 C.ar    1  UNL1       -0.0611
     45 C           5.8584    2.5057   -3.0725 C.ar    1  UNL1       -0.0520
     46 C           5.0576    1.5333   -2.4373 C.ar    1  UNL1        0.0081
     47 C           5.0878    0.1073   -2.4091 C.ar    1  UNL1        0.0101
     48 C           5.8654   -0.9209   -2.9872 C.ar    1  UNL1       -0.0513
     49 C           5.6562   -2.3013   -2.6785 C.ar    1  UNL1       -0.0513
     50 C           4.7470   -2.7246   -1.6817 C.ar    1  UNL1        0.0100
     51 C           4.3052   -3.9667   -1.1395 C.ar    1  UNL1        0.0080
     52 C           4.5966   -5.3127   -1.4483 C.ar    1  UNL1       -0.0520
     53 C           4.0207   -6.3408   -0.6965 C.ar    1  UNL1       -0.0611
     54 C           3.1734   -6.0484    0.3658 C.ar    1  UNL1       -0.0598
     55 C           2.8753   -4.7238    0.7021 C.ar    1  UNL1       -0.0372
     56 C           3.4271   -3.6847   -0.0747 C.ar    1  UNL1        0.0550
     57 N           3.3824   -2.2951    0.0576 N.ar    1  UNL1       -0.3068
     58 C           2.9443   -1.5615    1.1966 C.ar    1  UNL1        0.0473
     59 C           1.7150   -1.8303    1.7940 C.ar    1  UNL1       -0.0378
     60 C           1.2919   -1.0694    2.8871 C.ar    1  UNL1       -0.0598
     61 C           2.0985   -0.0482    3.3931 C.ar    1  UNL1       -0.0616
     62 C           3.3330    0.2130    2.8065 C.ar    1  UNL1       -0.0598
     63 C           3.7579   -0.5385    1.7107 C.ar    1  UNL1       -0.0378
     64 C           4.0306   -1.7473   -1.0248 C.ar    1  UNL1        0.0794
     65 C           4.1033   -0.2684   -1.5232 C.ar    1  UNL1        0.0821
     66 N           1.3835    1.6289   -0.0659 N.ar    1  UNL1       -0.1919
     67 C          -1.9869    2.3427    1.2810 C.ar    1  UNL1       -0.0505
     68 C          -2.6392    3.0069    2.3246 C.ar    1  UNL1       -0.0534
     69 C          -3.4705    3.5208    5.2734 C.ar    1  UNL1       -0.0540
     70 C          -4.1249    4.0923    6.3675 C.ar    1  UNL1       -0.0612
     71 H          -4.4231    5.8799    7.5304 H       1  UNL1        0.0618
     72 H          -2.9009    7.2483    6.1304 H       1  UNL1        0.0618
     73 H          -1.7445    6.2464    4.1946 H       1  UNL1        0.0624
     74 H           0.0909    4.1506    3.9803 H       1  UNL1        0.0624
     75 H           1.2309    2.9710    2.1561 H       1  UNL1        0.0625
     76 H           1.6083   -1.6205   -3.5886 H       1  UNL1        0.0638
     77 H           1.9682   -1.7170   -6.0306 H       1  UNL1        0.0618
     78 H           0.1677   -1.0958   -7.6031 H       1  UNL1        0.0618
     79 H          -2.0539   -0.4002   -6.7560 H       1  UNL1        0.0624
     80 H          -4.2544    0.4220   -5.1472 H       1  UNL1        0.0624
     81 H          -5.8496    0.8719   -3.3256 H       1  UNL1        0.0624
     82 H          -7.0751    1.3845   -0.8411 H       1  UNL1        0.0624
     83 H          -7.8409    1.2866    1.5088 H       1  UNL1        0.0618
     84 H          -6.5557    0.0129    3.1905 H       1  UNL1        0.0618
     85 H          -4.4903   -1.1473    2.5735 H       1  UNL1        0.0638
     86 H          -2.4043   -1.3502    2.3487 H       1  UNL1        0.0638
     87 H          -1.2708   -3.3683    3.1775 H       1  UNL1        0.0618
     88 H          -0.6675   -5.2028    1.6188 H       1  UNL1        0.0618
     89 H          -1.2606   -5.0279   -0.7834 H       1  UNL1        0.0618
     90 H          -2.5232   -3.1057   -1.6079 H       1  UNL1        0.0638
     91 H           2.8320    3.6561   -0.8829 H       1  UNL1        0.0638
     92 H           4.2903    5.3253   -1.9900 H       1  UNL1        0.0618
     93 H           6.1981    4.6098   -3.3856 H       1  UNL1        0.0618
     94 H           6.6950    2.2058   -3.6977 H       1  UNL1        0.0624
     95 H           6.6336   -0.6617   -3.7134 H       1  UNL1        0.0624
     96 H           6.2519   -3.0482   -3.1984 H       1  UNL1        0.0624
     97 H           5.2723   -5.5522   -2.2641 H       1  UNL1        0.0624
     98 H           4.2455   -7.3764   -0.9409 H       1  UNL1        0.0618
     99 H           2.7478   -6.8580    0.9554 H       1  UNL1        0.0618
    100 H           2.2419   -4.5223    1.5598 H       1  UNL1        0.0638
    101 H           1.0533   -2.5837    1.3797 H       1  UNL1        0.0638
    102 H           0.3229   -1.2562    3.3388 H       1  UNL1        0.0618
    103 H           1.7565    0.5448    4.2356 H       1  UNL1        0.0618
    104 H           3.9674    1.0035    3.2008 H       1  UNL1        0.0618
    105 H           4.7358   -0.3290    1.2844 H       1  UNL1        0.0638
    106 H          -2.6009    1.8440    0.5325 H       1  UNL1        0.0625
    107 H          -3.7271    2.9998    2.3467 H       1  UNL1        0.0624
    108 H          -3.6385    2.4684    5.0501 H       1  UNL1        0.0624
    109 H          -4.7883    3.4873    6.9770 H       1  UNL1        0.0618
@<TRIPOS>BOND
     1     1     2   ar
     2     2     3   ar
     3     3     4   ar
     4     4     5    1
     5     5     6   ar
     6     6     7   ar
     7     7     8   ar
     8     8     9    1
     9     9    10   ar
    10    10    11   ar
    11    11    12    1
    12    12    13   ar
    13    13    14   ar
    14    14    15   ar
    15    15    16   ar
    16    16    17   ar
    17    17    18   ar
    18    18    19   ar
    19    19    20   ar
    20    20    21   ar
    21    21    22   ar
    22    22    23   ar
    23    23    24   ar
    24    24    25   ar
    25    25    26   ar
    26    26    27   ar
    27    27    28   ar
    28    28    29   ar
    29    29    30    1
    30    30    31   ar
    31    31    32   ar
    32    32    33   ar
    33    33    34   ar
    34    34    35   ar
    35    29    36   ar
    36    36    37   ar
    37    11    38   ar
    38    38    39   ar
    39    39    40    1
    40    40    41   ar
    41    41    42   ar
    42    42    43   ar
    43    43    44   ar
    44    44    45   ar
    45    45    46   ar
    46    46    47   ar
    47    47    48   ar
    48    48    49   ar
    49    49    50   ar
    50    50    51   ar
    51    51    52   ar
    52    52    53   ar
    53    53    54   ar
    54    54    55   ar
    55    55    56   ar
    56    56    57   ar
    57    57    58    1
    58    58    59   ar
    59    59    60   ar
    60    60    61   ar
    61    61    62   ar
    62    62    63   ar
    63    57    64   ar
    64    64    65   ar
    65    39    66   ar
    66     8    67   ar
    67    67    68   ar
    68     4    69   ar
    69    69    70   ar
    70    70     1   ar
    71    68     5   ar
    72    66     9   ar
    73    37    12   ar
    74    65    40   ar
    75    18    13   ar
    76    37    19   ar
    77    46    41   ar
    78    65    47   ar
    79    36    22   ar
    80    64    50   ar
    81    28    23   ar
    82    35    30   ar
    83    56    51   ar
    84    63    58   ar
    85     1    71    1
    86     2    72    1
    87     3    73    1
    88     6    74    1
    89     7    75    1
    90    14    76    1
    91    15    77    1
    92    16    78    1
    93    17    79    1
    94    20    80    1
    95    21    81    1
    96    24    82    1
    97    25    83    1
    98    26    84    1
    99    27    85    1
   100    31    86    1
   101    32    87    1
   102    33    88    1
   103    34    89    1
   104    35    90    1
   105    42    91    1
   106    43    92    1
   107    44    93    1
   108    45    94    1
   109    48    95    1
   110    49    96    1
   111    52    97    1
   112    53    98    1
   113    54    99    1
   114    55   100    1
   115    59   101    1
   116    60   102    1
   117    61   103    1
   118    62   104    1
   119    63   105    1
   120    67   106    1
   121    68   107    1
   122    69   108    1
   123    70   109    1
