@<TRIPOS>MOLECULE
*****
 34 38 0 0 0
SMALL
GASTEIGER

@<TRIPOS>ATOM
      1 C           7.0698   -0.8540   -0.2630 C.ar    1  UNL1       -0.0436
      2 C           6.6030    0.4509   -0.2335 C.ar    1  UNL1       -0.0583
      3 C           5.2281    0.6885   -0.1721 C.ar    1  UNL1       -0.0342
      4 C           4.3351   -0.3876   -0.1409 C.ar    1  UNL1        0.0891
      5 C           2.8510   -0.2309   -0.0753 C.ar    1  UNL1        0.0891
      6 C           2.2016    1.0058   -0.0384 C.ar    1  UNL1       -0.0335
      7 C           0.8034    1.0625    0.0228 C.ar    1  UNL1       -0.0460
      8 C           0.0535   -0.1128    0.0472 C.ar    1  UNL1        0.0550
      9 C          -1.3989   -0.1310    0.1102 C.ar    1  UNL1        0.2299
     10 N          -2.2172   -1.1693    0.1385 N.ar    1  UNL1       -0.2088
     11 C          -3.4646   -0.6057    0.1966 C.ar    1  UNL1        0.1135
     12 C          -4.7397   -1.1744    0.2481 C.ar    1  UNL1        0.0120
     13 C          -5.8238   -0.3090    0.3013 C.ar    1  UNL1        0.1573
     14 O          -7.1499   -0.6216    0.3567 O.2     1  UNL1       -0.4424
     15 C          -7.7628    0.5969    0.3919 C.ar    1  UNL1        0.1831
     16 N          -6.9598    1.6399    0.3643 N.ar    1  UNL1       -0.2160
     17 C          -5.7120    1.0759    0.3061 C.ar    1  UNL1        0.1129
     18 C          -4.4363    1.6435    0.2546 C.ar    1  UNL1        0.0120
     19 C          -3.3528    0.7774    0.2015 C.ar    1  UNL1        0.1580
     20 O          -2.0282    1.0910    0.1461 O.2     1  UNL1       -0.4352
     21 C           0.7680   -1.2997    0.0078 C.ar    1  UNL1        0.0405
     22 N           2.1210   -1.3796   -0.0515 N.ar    1  UNL1       -0.2527
     23 N           4.8051   -1.6658   -0.1703 N.ar    1  UNL1       -0.2534
     24 C           6.1379   -1.8717   -0.2297 C.ar    1  UNL1        0.0283
     25 H           8.1300   -1.0734   -0.3106 H       1  UNL1        0.0633
     26 H           7.3014    1.2827   -0.2580 H       1  UNL1        0.0619
     27 H           4.8880    1.7165   -0.1500 H       1  UNL1        0.0639
     28 H           2.7495    1.9405   -0.0557 H       1  UNL1        0.0640
     29 H           0.3150    2.0339    0.0508 H       1  UNL1        0.0626
     30 H          -4.8747   -2.2496    0.2464 H       1  UNL1        0.0677
     31 H          -8.8430    0.5899    0.4388 H       1  UNL1        0.1255
     32 H          -4.3021    2.7186    0.2563 H       1  UNL1        0.0677
     33 H           0.2636   -2.2638    0.0230 H       1  UNL1        0.0837
     34 H           6.4411   -2.9144   -0.2502 H       1  UNL1        0.0830
@<TRIPOS>BOND
     1     1     2   ar
     2     2     3   ar
     3     3     4   ar
     4     4     5    1
     5     5     6   ar
     6     6     7   ar
     7     7     8   ar
     8     8     9    1
     9     9    10   ar
    10    10    11   ar
    11    11    12   ar
    12    12    13   ar
    13    13    14   ar
    14    14    15   ar
    15    15    16   ar
    16    16    17   ar
    17    17    18   ar
    18    18    19   ar
    19    19    20   ar
    20     8    21   ar
    21    21    22   ar
    22     4    23   ar
    23    23    24   ar
    24    24     1   ar
    25    22     5   ar
    26    20     9   ar
    27    19    11   ar
    28    17    13   ar
    29     1    25    1
    30     2    26    1
    31     3    27    1
    32     6    28    1
    33     7    29    1
    34    12    30    1
    35    15    31    1
    36    18    32    1
    37    21    33    1
    38    24    34    1
