@<TRIPOS>MOLECULE
*****
 34 38 0 0 0
SMALL
GASTEIGER

@<TRIPOS>ATOM
      1 C          -7.1870    0.1955    0.4116 C.ar    1  UNL1       -0.0436
      2 C          -6.7216   -0.2949   -0.7985 C.ar    1  UNL1       -0.0583
      3 C          -5.3457   -0.3929   -1.0178 C.ar    1  UNL1       -0.0342
      4 C          -4.4503    0.0028   -0.0187 C.ar    1  UNL1        0.0891
      5 C          -2.9653   -0.0658   -0.1630 C.ar    1  UNL1        0.0891
      6 C          -2.3163   -0.5313   -1.3082 C.ar    1  UNL1       -0.0336
      7 C          -0.9152   -0.5627   -1.3616 C.ar    1  UNL1       -0.0485
      8 C          -0.1541   -0.1304   -0.2738 C.ar    1  UNL1        0.0253
      9 C           1.3166   -0.1219   -0.2268 C.ar    1  UNL1        0.1109
     10 N           2.0112    0.2926    0.8154 N.ar    1  UNL1       -0.2389
     11 C           3.3688    0.1868    0.5765 C.ar    1  UNL1        0.0801
     12 C           4.3948    0.5364    1.4633 C.ar    1  UNL1       -0.0194
     13 C           5.7301    0.3779    1.0930 C.ar    1  UNL1        0.0410
     14 S           7.1665    0.7233    1.9768 S.2     1  UNL1       -0.0753
     15 C           8.1007    0.1819    0.6481 C.ar    1  UNL1        0.0659
     16 N           7.4338   -0.2366   -0.4035 N.ar    1  UNL1       -0.2474
     17 C           6.0752   -0.1291   -0.1604 C.ar    1  UNL1        0.0793
     18 C           5.0471   -0.4780   -1.0456 C.ar    1  UNL1       -0.0194
     19 C           3.7125   -0.3188   -0.6736 C.ar    1  UNL1        0.0416
     20 S           2.2782   -0.6619   -1.5513 S.2     1  UNL1       -0.0671
     21 C          -0.8774    0.3171    0.8252 C.ar    1  UNL1        0.0380
     22 N          -2.2324    0.3571    0.9006 N.ar    1  UNL1       -0.2528
     23 N          -4.9191    0.4832    1.1666 N.ar    1  UNL1       -0.2534
     24 C          -6.2528    0.5691    1.3565 C.ar    1  UNL1        0.0283
     25 H          -8.2479    0.2846    0.6143 H       1  UNL1        0.0633
     26 H          -7.4219   -0.6007   -1.5708 H       1  UNL1        0.0619
     27 H          -5.0069   -0.7790   -1.9712 H       1  UNL1        0.0639
     28 H          -2.8666   -0.8764   -2.1756 H       1  UNL1        0.0640
     29 H          -0.4489   -0.9320   -2.2710 H       1  UNL1        0.0625
     30 H           4.1348    0.9319    2.4412 H       1  UNL1        0.0651
     31 H           9.1825    0.1869    0.6797 H       1  UNL1        0.0907
     32 H           5.3068   -0.8735   -2.0235 H       1  UNL1        0.0651
     33 H          -0.3755    0.6746    1.7225 H       1  UNL1        0.0836
     34 H          -6.5547    0.9604    2.3236 H       1  UNL1        0.0830
@<TRIPOS>BOND
     1     1     2   ar
     2     2     3   ar
     3     3     4   ar
     4     4     5    1
     5     5     6   ar
     6     6     7   ar
     7     7     8   ar
     8     8     9    1
     9     9    10   ar
    10    10    11   ar
    11    11    12   ar
    12    12    13   ar
    13    13    14   ar
    14    14    15   ar
    15    15    16   ar
    16    16    17   ar
    17    17    18   ar
    18    18    19   ar
    19    19    20   ar
    20     8    21   ar
    21    21    22   ar
    22     4    23   ar
    23    23    24   ar
    24    24     1   ar
    25    22     5   ar
    26    20     9   ar
    27    19    11   ar
    28    17    13   ar
    29     1    25    1
    30     2    26    1
    31     3    27    1
    32     6    28    1
    33     7    29    1
    34    12    30    1
    35    15    31    1
    36    18    32    1
    37    21    33    1
    38    24    34    1
