@<TRIPOS>MOLECULE
*****
 32 35 0 0 0
SMALL
GASTEIGER

@<TRIPOS>ATOM
      1 C          -6.6460    0.0833   -0.0970 C.ar    1  UNL1       -0.0436
      2 C          -6.0310   -1.1241    0.2007 C.ar    1  UNL1       -0.0583
      3 C          -4.6401   -1.1827    0.2681 C.ar    1  UNL1       -0.0342
      4 C          -3.8873   -0.0289    0.0358 C.ar    1  UNL1        0.0891
      5 C          -2.4049   -0.0284    0.0935 C.ar    1  UNL1        0.0891
      6 C          -1.6513    1.1214   -0.1378 C.ar    1  UNL1       -0.0336
      7 C          -0.2567    1.0608   -0.0698 C.ar    1  UNL1       -0.0485
      8 C           0.3908   -0.1421    0.2281 C.ar    1  UNL1        0.0253
      9 C           1.8615   -0.1859    0.2953 C.ar    1  UNL1        0.1109
     10 N           2.6306    0.8656    0.0870 N.ar    1  UNL1       -0.2390
     11 C           3.9672    0.5304    0.2151 C.ar    1  UNL1        0.0789
     12 C           5.0591    1.4080    0.0587 C.ar    1  UNL1       -0.0352
     13 C           6.3640    0.9299    0.2179 C.ar    1  UNL1       -0.0597
     14 C           6.5909   -0.4069    0.5297 C.ar    1  UNL1       -0.0606
     15 C           5.5240   -1.2968    0.6898 C.ar    1  UNL1       -0.0459
     16 C           4.2183   -0.8045    0.5273 C.ar    1  UNL1        0.0395
     17 S           2.7201   -1.6353    0.6572 S.2     1  UNL1       -0.0671
     18 C          -0.4393   -1.2375    0.4441 C.ar    1  UNL1        0.0380
     19 N          -1.7980   -1.2114    0.3853 N.ar    1  UNL1       -0.2528
     20 N          -4.4904    1.1582   -0.2568 N.ar    1  UNL1       -0.2534
     21 C          -5.8407    1.1860   -0.3156 C.ar    1  UNL1        0.0283
     22 H          -7.7254    0.1635   -0.1572 H       1  UNL1        0.0633
     23 H          -6.6240   -2.0162    0.3798 H       1  UNL1        0.0619
     24 H          -4.1491   -2.1233    0.5005 H       1  UNL1        0.0639
     25 H          -2.1389    2.0641   -0.3705 H       1  UNL1        0.0640
     26 H           0.3204    1.9658   -0.2525 H       1  UNL1        0.0625
     27 H           4.8770    2.4500   -0.1845 H       1  UNL1        0.0639
     28 H           7.2039    1.6100    0.0965 H       1  UNL1        0.0618
     29 H           7.6109   -0.7662    0.6508 H       1  UNL1        0.0618
     30 H           5.7025   -2.3397    0.9331 H       1  UNL1        0.0629
     31 H          -0.0457   -2.2216    0.6826 H       1  UNL1        0.0836
     32 H          -6.2724    2.1545   -0.5520 H       1  UNL1        0.0830
@<TRIPOS>BOND
     1     1     2   ar
     2     2     3   ar
     3     3     4   ar
     4     4     5    1
     5     5     6   ar
     6     6     7   ar
     7     7     8   ar
     8     8     9    1
     9     9    10   ar
    10    10    11   ar
    11    11    12   ar
    12    12    13   ar
    13    13    14   ar
    14    14    15   ar
    15    15    16   ar
    16    16    17   ar
    17     8    18   ar
    18    18    19   ar
    19     4    20   ar
    20    20    21   ar
    21    21     1   ar
    22    19     5   ar
    23    17     9   ar
    24    16    11   ar
    25     1    22    1
    26     2    23    1
    27     3    24    1
    28     6    25    1
    29     7    26    1
    30    12    27    1
    31    13    28    1
    32    14    29    1
    33    15    30    1
    34    18    31    1
    35    21    32    1
