@<TRIPOS>MOLECULE
*****
 34 38 0 0 0
SMALL
GASTEIGER

@<TRIPOS>ATOM
      1 C          -7.1106   -0.0962   -0.0322 C.ar    1  UNL1       -0.0436
      2 C          -6.3985    0.3755   -1.1253 C.ar    1  UNL1       -0.0583
      3 C          -5.0055    0.3893   -1.0777 C.ar    1  UNL1       -0.0342
      4 C          -4.3482   -0.0706    0.0661 C.ar    1  UNL1        0.0891
      5 C          -2.8685   -0.0811    0.1770 C.ar    1  UNL1        0.0891
      6 C          -2.2113   -0.5400    1.3185 C.ar    1  UNL1       -0.0335
      7 C          -0.8151   -0.5265    1.3668 C.ar    1  UNL1       -0.0476
      8 C          -0.0760   -0.0569    0.2804 C.ar    1  UNL1        0.0355
      9 C           1.3884   -0.0453    0.3371 C.ar    1  UNL1        0.1436
     10 N           2.1162   -0.4564    1.3679 N.ar    1  UNL1       -0.2068
     11 C           3.4202   -0.2737    1.0040 C.ar    1  UNL1        0.1998
     12 N           4.5304   -0.5490    1.7301 N.ar    1  UNL1       -0.2020
     13 C           5.6959   -0.2596    1.1017 C.ar    1  UNL1        0.1992
     14 N           6.9682   -0.4270    1.5778 N.ar    1  UNL1       -0.2152
     15 C           7.7490   -0.0033    0.6044 C.ar    1  UNL1        0.0973
     16 N           7.0346    0.4312   -0.4818 N.ar    1  UNL1       -0.3279
     17 C           5.7151    0.2756   -0.1839 C.ar    1  UNL1        0.1791
     18 N           4.6352    0.5641   -0.9402 N.ar    1  UNL1       -0.2052
     19 C           3.5016    0.2601   -0.2749 C.ar    1  UNL1        0.1795
     20 N           2.2108    0.3983   -0.6818 N.ar    1  UNL1       -0.3214
     21 C          -0.8101    0.3813   -0.8159 C.ar    1  UNL1        0.0389
     22 N          -2.1655    0.3815   -0.8947 N.ar    1  UNL1       -0.2527
     23 N          -5.0469   -0.5342    1.1404 N.ar    1  UNL1       -0.2534
     24 C          -6.3967   -0.5362    1.0673 C.ar    1  UNL1        0.0283
     25 H          -8.1944   -0.1206   -0.0362 H       1  UNL1        0.0633
     26 H          -6.9181    0.7310   -2.0104 H       1  UNL1        0.0619
     27 H          -4.4395    0.7567   -1.9286 H       1  UNL1        0.0639
     28 H          -2.7753   -0.9082    2.1712 H       1  UNL1        0.0640
     29 H          -0.3102   -0.8866    2.2620 H       1  UNL1        0.0626
     30 H           8.8312    0.0132    0.6272 H       1  UNL1        0.1028
     31 H           7.4045    0.7992   -1.3452 H       1  UNL1        0.1683
     32 H           1.9291    0.7639   -1.5772 H       1  UNL1        0.1689
     33 H          -0.3341    0.7655   -1.7123 H       1  UNL1        0.0837
     34 H          -6.9061   -0.9152    1.9489 H       1  UNL1        0.0830
@<TRIPOS>BOND
     1     1     2   ar
     2     2     3   ar
     3     3     4   ar
     4     4     5    1
     5     5     6   ar
     6     6     7   ar
     7     7     8   ar
     8     8     9    1
     9     9    10   ar
    10    10    11   ar
    11    11    12   ar
    12    12    13   ar
    13    13    14   ar
    14    14    15   ar
    15    15    16   ar
    16    16    17   ar
    17    17    18   ar
    18    18    19   ar
    19    19    20   ar
    20     8    21   ar
    21    21    22   ar
    22     4    23   ar
    23    23    24   ar
    24    24     1   ar
    25    22     5   ar
    26    20     9   ar
    27    19    11   ar
    28    17    13   ar
    29     1    25    1
    30     2    26    1
    31     3    27    1
    32     6    28    1
    33     7    29    1
    34    15    30    1
    35    16    31    1
    36    20    32    1
    37    21    33    1
    38    24    34    1
