@<TRIPOS>MOLECULE
*****
 41 44 0 0 0
SMALL
GASTEIGER

@<TRIPOS>ATOM
      1 C          -6.7912    1.8353    0.5110 C.ar    1  UNL1       -0.0617
      2 C          -5.5111    2.2569    0.8598 C.ar    1  UNL1       -0.0611
      3 C          -4.4177    1.4106    0.6572 C.ar    1  UNL1       -0.0525
      4 C          -4.5871    0.1303    0.1073 C.ar    1  UNL1        0.0009
      5 C          -3.4172   -0.7250   -0.0867 C.ar    1  UNL1        0.0802
      6 C          -3.4611   -2.0865   -0.2954 C.ar    1  UNL1        0.0049
      7 S          -1.8773   -2.7045   -0.4744 S.2     1  UNL1       -0.0601
      8 C          -1.2138   -1.1195   -0.2362 C.ar    1  UNL1        0.1613
      9 N           0.1291   -0.8455   -0.2747 N.pl3   1  UNL1       -0.3066
     10 C           0.5022    0.5401    0.1018 C.3     1  UNL1        0.0298
     11 C           1.9619    0.8615   -0.2780 C.3     1  UNL1        0.0293
     12 N           2.8857   -0.1392    0.3069 N.pl3   1  UNL1       -0.3122
     13 C           4.2409    0.1739    0.0697 C.ar    1  UNL1        0.1213
     14 C           5.2340   -0.5256    0.7603 C.ar    1  UNL1       -0.0217
     15 C           6.5780   -0.2224    0.5482 C.ar    1  UNL1       -0.0571
     16 C           6.9098    0.7823   -0.3462 C.ar    1  UNL1       -0.0435
     17 C           5.8766    1.4434   -0.9823 C.ar    1  UNL1        0.0297
     18 N           4.5676    1.1641   -0.7893 N.ar    1  UNL1       -0.2403
     19 C           2.5434   -1.5072   -0.1417 C.3     1  UNL1        0.0293
     20 C           1.0823   -1.8584    0.2242 C.3     1  UNL1        0.0298
     21 N          -2.1352   -0.1964   -0.0528 N.ar    1  UNL1       -0.2248
     22 C          -5.8827   -0.2766   -0.2451 C.ar    1  UNL1       -0.0525
     23 C          -6.9773    0.5707   -0.0427 C.ar    1  UNL1       -0.0611
     24 H          -7.6421    2.4934    0.6662 H       1  UNL1        0.0618
     25 H          -5.3587    3.2441    1.2879 H       1  UNL1        0.0618
     26 H          -3.4236    1.7576    0.9339 H       1  UNL1        0.0624
     27 H          -4.3133   -2.7463   -0.3498 H       1  UNL1        0.0716
     28 H           0.3681    0.6693    1.1839 H       1  UNL1        0.0480
     29 H          -0.1400    1.2687   -0.4087 H       1  UNL1        0.0480
     30 H           2.1973    1.8653    0.0979 H       1  UNL1        0.0480
     31 H           2.0477    0.8708   -1.3734 H       1  UNL1        0.0480
     32 H           4.9644   -1.2888    1.4822 H       1  UNL1        0.0652
     33 H           7.3520   -0.7614    1.0858 H       1  UNL1        0.0619
     34 H           7.9424    1.0500   -0.5364 H       1  UNL1        0.0633
     35 H           6.0757    2.2448   -1.6878 H       1  UNL1        0.0830
     36 H           2.6730   -1.5868   -1.2298 H       1  UNL1        0.0480
     37 H           3.1919   -2.2561    0.3275 H       1  UNL1        0.0480
     38 H           0.8771   -2.8469   -0.2009 H       1  UNL1        0.0480
     39 H           0.9888   -1.9344    1.3154 H       1  UNL1        0.0480
     40 H          -6.0652   -1.2488   -0.6937 H       1  UNL1        0.0624
     41 H          -7.9754    0.2432   -0.3227 H       1  UNL1        0.0618
@<TRIPOS>BOND
     1     1     2   ar
     2     2     3   ar
     3     3     4   ar
     4     4     5    1
     5     5     6   ar
     6     6     7   ar
     7     7     8   ar
     8     8     9    1
     9     9    10    1
    10    10    11    1
    11    11    12    1
    12    12    13    1
    13    13    14   ar
    14    14    15   ar
    15    15    16   ar
    16    16    17   ar
    17    17    18   ar
    18    12    19    1
    19    19    20    1
    20     8    21   ar
    21     4    22   ar
    22    22    23   ar
    23    23     1   ar
    24    21     5   ar
    25    20     9    1
    26    18    13   ar
    27     1    24    1
    28     2    25    1
    29     3    26    1
    30     6    27    1
    31    10    28    1
    32    10    29    1
    33    11    30    1
    34    11    31    1
    35    14    32    1
    36    15    33    1
    37    16    34    1
    38    17    35    1
    39    19    36    1
    40    19    37    1
    41    20    38    1
    42    20    39    1
    43    22    40    1
    44    23    41    1
