@<TRIPOS>MOLECULE
*****
 81 90 0 0 0
SMALL
GASTEIGER

@<TRIPOS>ATOM
      1 C           0.3674   -7.8500   -0.9981 C.ar    1  UNL1       -0.0617
      2 C          -0.8675   -7.2123   -0.9419 C.ar    1  UNL1       -0.0611
      3 C          -0.9327   -5.8226   -0.7940 C.ar    1  UNL1       -0.0510
      4 C           0.2315   -5.0347   -0.6982 C.ar    1  UNL1        0.0192
      5 C           0.1614   -3.5660   -0.5406 C.ar    1  UNL1        0.1643
      6 N           1.3108   -2.8996   -0.4213 N.ar    1  UNL1       -0.2078
      7 C           1.1966   -1.5797   -0.2785 C.ar    1  UNL1        0.1643
      8 C           2.4382   -0.7890   -0.1412 C.ar    1  UNL1        0.0194
      9 C           2.4140    0.6200   -0.1336 C.ar    1  UNL1       -0.0493
     10 C           3.5855    1.3730    0.0038 C.ar    1  UNL1       -0.0393
     11 C           4.8238    0.7373    0.1408 C.ar    1  UNL1        0.0390
     12 N           6.0175    1.5037    0.2940 N.pl3   1  UNL1       -0.2627
     13 C           6.9002    1.7380   -0.8118 C.ar    1  UNL1        0.0813
     14 C           6.6589    1.2379   -2.1034 C.ar    1  UNL1       -0.0364
     15 C           7.5471    1.4926   -3.1544 C.ar    1  UNL1       -0.0598
     16 C           8.6907    2.2552   -2.9350 C.ar    1  UNL1       -0.0582
     17 C           8.9448    2.7673   -1.6654 C.ar    1  UNL1       -0.0175
     18 C           8.0557    2.5125   -0.6161 C.ar    1  UNL1        0.1501
     19 O           8.3887    3.0740    0.5953 O.3     1  UNL1       -0.4523
     20 C           7.5397    2.8556    1.6564 C.ar    1  UNL1        0.1501
     21 C           7.9173    3.4475    2.8665 C.ar    1  UNL1       -0.0175
     22 C           7.1314    3.2765    4.0035 C.ar    1  UNL1       -0.0582
     23 C           5.9714    2.5110    3.9299 C.ar    1  UNL1       -0.0598
     24 C           5.5940    1.9212    2.7182 C.ar    1  UNL1       -0.0364
     25 C           6.3677    2.0886    1.5559 C.ar    1  UNL1        0.0813
     26 C           4.8709   -0.6606    0.1322 C.ar    1  UNL1       -0.0393
     27 C           3.6960   -1.4090   -0.0085 C.ar    1  UNL1       -0.0493
     28 N           0.0383   -0.9219   -0.2445 N.ar    1  UNL1       -0.2078
     29 C          -1.0545   -1.6747   -0.3692 C.ar    1  UNL1        0.1643
     30 C          -2.3644   -0.9902   -0.3302 C.ar    1  UNL1        0.0194
     31 C          -2.4673    0.3769   -0.0039 C.ar    1  UNL1       -0.0493
     32 C          -3.7038    1.0310    0.0314 C.ar    1  UNL1       -0.0393
     33 C          -4.8819    0.3363   -0.2624 C.ar    1  UNL1        0.0390
     34 N          -6.1416    1.0063   -0.2361 N.pl3   1  UNL1       -0.2627
     35 C          -7.0203    0.8968    0.8921 C.ar    1  UNL1        0.0813
     36 C          -6.7196    0.1196    2.0248 C.ar    1  UNL1       -0.0364
     37 C          -7.6060    0.0439    3.1050 C.ar    1  UNL1       -0.0598
     38 C          -8.8071    0.7469    3.0758 C.ar    1  UNL1       -0.0582
     39 C          -9.1214    1.5292    1.9675 C.ar    1  UNL1       -0.0175
     40 C          -8.2344    1.6038    0.8880 C.ar    1  UNL1        0.1501
     41 O          -8.6295    2.4141   -0.1520 O.3     1  UNL1       -0.4523
     42 C          -7.7842    2.5267   -1.2316 C.ar    1  UNL1        0.1501
     43 C          -8.2263    3.3629   -2.2622 C.ar    1  UNL1       -0.0175
     44 C          -7.4485    3.5339   -3.4046 C.ar    1  UNL1       -0.0582
     45 C          -6.2329    2.8653   -3.5175 C.ar    1  UNL1       -0.0598
     46 C          -5.7921    2.0291   -2.4859 C.ar    1  UNL1       -0.0364
     47 C          -6.5563    1.8508   -1.3188 C.ar    1  UNL1        0.0813
     48 C          -4.8029   -1.0221   -0.5867 C.ar    1  UNL1       -0.0393
     49 C          -3.5632   -1.6725   -0.6178 C.ar    1  UNL1       -0.0493
     50 N          -1.0458   -2.9985   -0.5237 N.ar    1  UNL1       -0.2078
     51 C           1.4665   -5.7108   -0.7589 C.ar    1  UNL1       -0.0510
     52 C           1.5354   -7.1002   -0.9068 C.ar    1  UNL1       -0.0611
     53 H           0.4196   -8.9296   -1.1126 H       1  UNL1        0.0618
     54 H          -1.7836   -7.7932   -1.0123 H       1  UNL1        0.0618
     55 H          -1.9144   -5.3535   -0.7524 H       1  UNL1        0.0625
     56 H           1.4692    1.1512   -0.2378 H       1  UNL1        0.0625
     57 H           3.5326    2.4591    0.0039 H       1  UNL1        0.0636
     58 H           5.7729    0.6462   -2.3166 H       1  UNL1        0.0637
     59 H           7.3402    1.0944   -4.1446 H       1  UNL1        0.0618
     60 H           9.3798    2.4545   -3.7515 H       1  UNL1        0.0619
     61 H           9.8324    3.3688   -1.4890 H       1  UNL1        0.0655
     62 H           8.8274    4.0384    2.9195 H       1  UNL1        0.0655
     63 H           7.4248    3.7359    4.9439 H       1  UNL1        0.0619
     64 H           5.3554    2.3695    4.8146 H       1  UNL1        0.0618
     65 H           4.6864    1.3240    2.7033 H       1  UNL1        0.0637
     66 H           5.8253   -1.1700    0.2416 H       1  UNL1        0.0636
     67 H           3.7720   -2.4953   -0.0064 H       1  UNL1        0.0625
     68 H          -1.5733    0.9527    0.2314 H       1  UNL1        0.0625
     69 H          -3.7483    2.0864    0.2899 H       1  UNL1        0.0636
     70 H          -5.7891   -0.4377    2.0897 H       1  UNL1        0.0637
     71 H          -7.3526   -0.5647    3.9699 H       1  UNL1        0.0618
     72 H          -9.4949    0.6890    3.9155 H       1  UNL1        0.0619
     73 H         -10.0546    2.0852    1.9415 H       1  UNL1        0.0655
     74 H          -9.1787    3.8777   -2.1706 H       1  UNL1        0.0655
     75 H          -7.7919    4.1832   -4.2057 H       1  UNL1        0.0619
     76 H          -5.6239    2.9898   -4.4096 H       1  UNL1        0.0618
     77 H          -4.8420    1.5177   -2.6144 H       1  UNL1        0.0637
     78 H          -5.7089   -1.5759   -0.8216 H       1  UNL1        0.0636
     79 H          -3.5413   -2.7296   -0.8781 H       1  UNL1        0.0625
     80 H           2.3989   -5.1523   -0.6919 H       1  UNL1        0.0625
     81 H           2.5032   -7.5929   -0.9501 H       1  UNL1        0.0618
@<TRIPOS>BOND
     1     1     2   ar
     2     2     3   ar
     3     3     4   ar
     4     4     5    1
     5     5     6   ar
     6     6     7   ar
     7     7     8    1
     8     8     9   ar
     9     9    10   ar
    10    10    11   ar
    11    11    12    1
    12    12    13    1
    13    13    14   ar
    14    14    15   ar
    15    15    16   ar
    16    16    17   ar
    17    17    18   ar
    18    18    19    1
    19    19    20    1
    20    20    21   ar
    21    21    22   ar
    22    22    23   ar
    23    23    24   ar
    24    24    25   ar
    25    11    26   ar
    26    26    27   ar
    27     7    28   ar
    28    28    29   ar
    29    29    30    1
    30    30    31   ar
    31    31    32   ar
    32    32    33   ar
    33    33    34    1
    34    34    35    1
    35    35    36   ar
    36    36    37   ar
    37    37    38   ar
    38    38    39   ar
    39    39    40   ar
    40    40    41    1
    41    41    42    1
    42    42    43   ar
    43    43    44   ar
    44    44    45   ar
    45    45    46   ar
    46    46    47   ar
    47    33    48   ar
    48    48    49   ar
    49    29    50   ar
    50     4    51   ar
    51    51    52   ar
    52    52     1   ar
    53    50     5   ar
    54    27     8   ar
    55    49    30   ar
    56    25    12    1
    57    47    34    1
    58    18    13   ar
    59    25    20   ar
    60    40    35   ar
    61    47    42   ar
    62     1    53    1
    63     2    54    1
    64     3    55    1
    65     9    56    1
    66    10    57    1
    67    14    58    1
    68    15    59    1
    69    16    60    1
    70    17    61    1
    71    21    62    1
    72    22    63    1
    73    23    64    1
    74    24    65    1
    75    26    66    1
    76    27    67    1
    77    31    68    1
    78    32    69    1
    79    36    70    1
    80    37    71    1
    81    38    72    1
    82    39    73    1
    83    43    74    1
    84    44    75    1
    85    45    76    1
    86    46    77    1
    87    48    78    1
    88    49    79    1
    89    51    80    1
    90    52    81    1
