@<TRIPOS>MOLECULE
*****
 98 108 0 0 0
SMALL
GASTEIGER

@<TRIPOS>ATOM
      1 C         -10.8786    5.5275    0.2843 C.ar    1  UNL1       -0.0617
      2 C          -9.4955    5.4140    0.1858 C.ar    1  UNL1       -0.0611
      3 C          -8.8989    4.1497    0.1337 C.ar    1  UNL1       -0.0510
      4 C          -9.6661    2.9688    0.1812 C.ar    1  UNL1        0.0192
      5 C          -9.0341    1.6335    0.1251 C.ar    1  UNL1        0.1643
      6 N          -9.8339    0.5679    0.0782 N.ar    1  UNL1       -0.2078
      7 C          -9.2169   -0.6129    0.0209 C.ar    1  UNL1        0.1643
      8 C         -10.0598   -1.8270   -0.0232 C.ar    1  UNL1        0.0192
      9 C          -9.4955   -3.1176    0.0071 C.ar    1  UNL1       -0.0510
     10 C         -10.2919   -4.2673   -0.0338 C.ar    1  UNL1       -0.0611
     11 C         -11.6765   -4.1537   -0.1057 C.ar    1  UNL1       -0.0617
     12 C         -12.2648   -2.8936   -0.1370 C.ar    1  UNL1       -0.0611
     13 C         -11.4650   -1.7464   -0.0957 C.ar    1  UNL1       -0.0510
     14 N          -7.8927   -0.7727    0.0059 N.ar    1  UNL1       -0.2078
     15 C          -7.1797    0.3525    0.0619 C.ar    1  UNL1        0.1643
     16 C          -5.7058    0.2387    0.0531 C.ar    1  UNL1        0.0194
     17 C          -4.8836    1.3502    0.3274 C.ar    1  UNL1       -0.0493
     18 C          -3.4880    1.2485    0.3194 C.ar    1  UNL1       -0.0393
     19 C          -2.8688    0.0278    0.0294 C.ar    1  UNL1        0.0389
     20 N          -1.4415   -0.0741    0.0147 N.pl3   1  UNL1       -0.2656
     21 C          -0.7340   -0.5409    1.1831 C.ar    1  UNL1        0.0604
     22 C          -1.4265   -0.9399    2.3490 C.ar    1  UNL1       -0.0382
     23 C          -0.7535   -1.4123    3.4760 C.ar    1  UNL1       -0.0599
     24 C           0.6295   -1.4945    3.4662 C.ar    1  UNL1       -0.0599
     25 C           1.3377   -1.0957    2.3324 C.ar    1  UNL1       -0.0382
     26 C           0.6809   -0.6058    1.1804 C.ar    1  UNL1        0.0604
     27 N           1.4258   -0.1810    0.0194 N.pl3   1  UNL1       -0.2656
     28 C           2.8563   -0.2191    0.0288 C.ar    1  UNL1        0.0389
     29 C           3.5413   -1.2973   -0.5416 C.ar    1  UNL1       -0.0393
     30 C           4.9403   -1.3327   -0.5299 C.ar    1  UNL1       -0.0493
     31 C           5.7009   -0.2996    0.0540 C.ar    1  UNL1        0.0194
     32 C           7.1788   -0.3446    0.0675 C.ar    1  UNL1        0.1643
     33 N           7.7757   -1.2871   -0.6625 N.ar    1  UNL1       -0.2078
     34 C           9.1082   -1.2897   -0.6165 C.ar    1  UNL1        0.1643
     35 C           9.8225   -2.3062   -1.4173 C.ar    1  UNL1        0.0192
     36 C           9.1354   -3.1652   -2.2983 C.ar    1  UNL1       -0.0510
     37 C           9.8099   -4.1270   -3.0591 C.ar    1  UNL1       -0.0611
     38 C          11.1915   -4.2549   -2.9561 C.ar    1  UNL1       -0.0617
     39 C          11.8977   -3.4215   -2.0945 C.ar    1  UNL1       -0.0611
     40 C          11.2210   -2.4589   -1.3369 C.ar    1  UNL1       -0.0510
     41 N           9.8400   -0.4372    0.1010 N.ar    1  UNL1       -0.2078
     42 C           9.1521    0.4706    0.7948 C.ar    1  UNL1        0.1643
     43 C           9.9192    1.4407    1.6061 C.ar    1  UNL1        0.0192
     44 C          11.3288    1.4489    1.6058 C.ar    1  UNL1       -0.0510
     45 C          12.0572    2.3638    2.3732 C.ar    1  UNL1       -0.0611
     46 C          11.3914    3.2966    3.1618 C.ar    1  UNL1       -0.0617
     47 C          10.0001    3.3150    3.1840 C.ar    1  UNL1       -0.0611
     48 C           9.2753    2.3978    2.4154 C.ar    1  UNL1       -0.0510
     49 N           7.8213    0.5592    0.8082 N.ar    1  UNL1       -0.2078
     50 C           4.9910    0.7763    0.6237 C.ar    1  UNL1       -0.0493
     51 C           3.5915    0.8199    0.6107 C.ar    1  UNL1       -0.0393
     52 C           0.7182    0.2842   -1.1496 C.ar    1  UNL1        0.0604
     53 C           1.4122    0.7120   -2.3047 C.ar    1  UNL1       -0.0382
     54 C           0.7388    1.1515   -3.4447 C.ar    1  UNL1       -0.0599
     55 C          -0.6466    1.1734   -3.4579 C.ar    1  UNL1       -0.0599
     56 C          -1.3558    0.7661   -2.3274 C.ar    1  UNL1       -0.0382
     57 C          -0.6975    0.3267   -1.1558 C.ar    1  UNL1        0.0604
     58 C          -3.6658   -1.0884   -0.2471 C.ar    1  UNL1       -0.0393
     59 C          -5.0619   -0.9821   -0.2316 C.ar    1  UNL1       -0.0493
     60 N          -7.7025    1.5770    0.1236 N.ar    1  UNL1       -0.2078
     61 C         -11.0635    3.1184    0.2824 C.ar    1  UNL1       -0.0510
     62 C         -11.6643    4.3805    0.3335 C.ar    1  UNL1       -0.0611
     63 H         -11.3435    6.5088    0.3240 H       1  UNL1        0.0618
     64 H          -8.8767    6.3067    0.1460 H       1  UNL1        0.0618
     65 H          -7.8146    4.0921    0.0549 H       1  UNL1        0.0625
     66 H          -8.4150   -3.2387    0.0670 H       1  UNL1        0.0625
     67 H          -9.8267   -5.2495   -0.0079 H       1  UNL1        0.0618
     68 H         -12.2962   -5.0461   -0.1356 H       1  UNL1        0.0618
     69 H         -13.3464   -2.7990   -0.1934 H       1  UNL1        0.0618
     70 H         -11.9549   -0.7743   -0.1215 H       1  UNL1        0.0625
     71 H          -5.3296    2.3176    0.5553 H       1  UNL1        0.0625
     72 H          -2.8810    2.1234    0.5392 H       1  UNL1        0.0636
     73 H          -2.5106   -0.8893    2.3993 H       1  UNL1        0.0637
     74 H          -1.3141   -1.7145    4.3566 H       1  UNL1        0.0618
     75 H           1.1632   -1.8634    4.3382 H       1  UNL1        0.0618
     76 H           2.4208   -1.1772    2.3663 H       1  UNL1        0.0637
     77 H           2.9832   -2.1132   -0.9947 H       1  UNL1        0.0636
     78 H           5.4387   -2.1889   -0.9821 H       1  UNL1        0.0625
     79 H           8.0539   -3.0882   -2.4025 H       1  UNL1        0.0625
     80 H           9.2525   -4.7739   -3.7316 H       1  UNL1        0.0618
     81 H          11.7165   -5.0029   -3.5458 H       1  UNL1        0.0618
     82 H          12.9770   -3.5162   -2.0093 H       1  UNL1        0.0618
     83 H          11.8027   -1.8223   -0.6714 H       1  UNL1        0.0625
     84 H          11.8789    0.7298    1.0002 H       1  UNL1        0.0625
     85 H          13.1440    2.3441    2.3522 H       1  UNL1        0.0618
     86 H          11.9556    4.0069    3.7601 H       1  UNL1        0.0618
     87 H           9.4742    4.0403    3.7998 H       1  UNL1        0.0618
     88 H           8.1878    2.4339    2.4567 H       1  UNL1        0.0625
     89 H           5.5290    1.6031    1.0862 H       1  UNL1        0.0625
     90 H           3.0724    1.6662    1.0551 H       1  UNL1        0.0636
     91 H           2.4982    0.7095   -2.3370 H       1  UNL1        0.0637
     92 H           1.2999    1.4708   -4.3190 H       1  UNL1        0.0618
     93 H          -1.1808    1.5086   -4.3430 H       1  UNL1        0.0618
     94 H          -2.4410    0.7966   -2.3805 H       1  UNL1        0.0637
     95 H          -3.1976   -2.0425   -0.4765 H       1  UNL1        0.0636
     96 H          -5.6506   -1.8712   -0.4528 H       1  UNL1        0.0625
     97 H         -11.7047    2.2391    0.3230 H       1  UNL1        0.0625
     98 H         -12.7454    4.4633    0.4132 H       1  UNL1        0.0618
@<TRIPOS>BOND
     1     1     2   ar
     2     2     3   ar
     3     3     4   ar
     4     4     5    1
     5     5     6   ar
     6     6     7   ar
     7     7     8    1
     8     8     9   ar
     9     9    10   ar
    10    10    11   ar
    11    11    12   ar
    12    12    13   ar
    13     7    14   ar
    14    14    15   ar
    15    15    16    1
    16    16    17   ar
    17    17    18   ar
    18    18    19   ar
    19    19    20    1
    20    20    21    1
    21    21    22   ar
    22    22    23   ar
    23    23    24   ar
    24    24    25   ar
    25    25    26   ar
    26    26    27    1
    27    27    28    1
    28    28    29   ar
    29    29    30   ar
    30    30    31   ar
    31    31    32    1
    32    32    33   ar
    33    33    34   ar
    34    34    35    1
    35    35    36   ar
    36    36    37   ar
    37    37    38   ar
    38    38    39   ar
    39    39    40   ar
    40    34    41   ar
    41    41    42   ar
    42    42    43    1
    43    43    44   ar
    44    44    45   ar
    45    45    46   ar
    46    46    47   ar
    47    47    48   ar
    48    42    49   ar
    49    31    50   ar
    50    50    51   ar
    51    27    52    1
    52    52    53   ar
    53    53    54   ar
    54    54    55   ar
    55    55    56   ar
    56    56    57   ar
    57    19    58   ar
    58    58    59   ar
    59    15    60   ar
    60     4    61   ar
    61    61    62   ar
    62    62     1   ar
    63    60     5   ar
    64    13     8   ar
    65    59    16   ar
    66    57    20    1
    67    26    21   ar
    68    51    28   ar
    69    57    52   ar
    70    49    32   ar
    71    40    35   ar
    72    48    43   ar
    73     1    63    1
    74     2    64    1
    75     3    65    1
    76     9    66    1
    77    10    67    1
    78    11    68    1
    79    12    69    1
    80    13    70    1
    81    17    71    1
    82    18    72    1
    83    22    73    1
    84    23    74    1
    85    24    75    1
    86    25    76    1
    87    29    77    1
    88    30    78    1
    89    36    79    1
    90    37    80    1
    91    38    81    1
    92    39    82    1
    93    40    83    1
    94    44    84    1
    95    45    85    1
    96    46    86    1
    97    47    87    1
    98    48    88    1
    99    50    89    1
   100    51    90    1
   101    53    91    1
   102    54    92    1
   103    55    93    1
   104    56    94    1
   105    58    95    1
   106    59    96    1
   107    61    97    1
   108    62    98    1
