@<TRIPOS>MOLECULE
*****
 40 45 0 0 0
SMALL
GASTEIGER

@<TRIPOS>ATOM
      1 SI         -1.6888   -3.6725    1.6258 Si      1  UNL1        0.0000
      2 C          -0.0818   -2.7931    1.3421 C.2     1  UNL1        0.0000
      3 C          -0.2743   -1.5793    0.7878 C.ar    1  UNL1        0.0000
      4 C           0.7525   -0.7281    0.2723 C.ar    1  UNL1        0.0000
      5 C           2.1627   -0.8939    0.3512 C.ar    1  UNL1        0.0000
      6 C           2.8622    0.1090   -0.3034 C.ar    1  UNL1        0.0000
      7 S           1.7662    1.2317   -1.0048 S.2     1  UNL1        0.0000
      8 C           0.3894    0.3979   -0.4390 C.ar    1  UNL1        0.0000
      9 C          -1.0001    0.8523   -0.6434 C.ar    1  UNL1        0.0000
     10 C          -1.3222    1.9824   -1.3790 C.ar    1  UNL1        0.0000
     11 N          -2.5687    2.4814   -1.5073 N.ar    1  UNL1        0.0000
     12 C          -3.5540    1.8969   -0.8183 C.ar    1  UNL1        0.0000
     13 C          -4.8056    2.4923   -0.8998 C.ar    1  UNL1        0.0000
     14 C          -5.8992    2.0216   -0.1764 C.ar    1  UNL1        0.0000
     15 C          -5.7340    0.9396    0.6691 C.ar    1  UNL1        0.0000
     16 C          -4.4859    0.3193    0.7553 C.ar    1  UNL1        0.0000
     17 C          -3.3693    0.7450   -0.0155 C.ar    1  UNL1        0.0000
     18 C          -2.0656    0.1489   -0.0199 C.ar    1  UNL1        0.0000
     19 C          -1.7031   -1.1828    0.5899 C.ar    1  UNL1        0.0000
     20 C          -2.5561   -2.1923    0.8763 C.2     1  UNL1        0.0000
     21 C           4.3249    0.2551   -0.4279 C.ar    1  UNL1        0.0000
     22 C           4.9585    1.3164   -1.0712 C.ar    1  UNL1        0.0000
     23 C           6.3519    1.3436   -1.1229 C.ar    1  UNL1        0.0000
     24 C           7.0769    0.3167   -0.5343 C.ar    1  UNL1        0.0000
     25 C           6.3753   -0.7008    0.0857 C.ar    1  UNL1        0.0000
     26 N           5.0269   -0.7534    0.1514 N.ar    1  UNL1        0.0000
     27 H          -2.0129   -3.8361    3.0631 H       1  UNL1        0.0000
     28 H          -1.8373   -4.8887    0.7918 H       1  UNL1        0.0000
     29 H           0.8612   -3.2824    1.5269 H       1  UNL1        0.0000
     30 H           2.6643   -1.7103    0.8575 H       1  UNL1        0.0000
     31 H          -0.5708    2.5587   -1.9107 H       1  UNL1        0.0000
     32 H          -4.9287    3.3658   -1.5372 H       1  UNL1        0.0000
     33 H          -6.8617    2.5187   -0.2573 H       1  UNL1        0.0000
     34 H          -6.5645    0.5829    1.2728 H       1  UNL1        0.0000
     35 H          -4.3883   -0.4786    1.4834 H       1  UNL1        0.0000
     36 H          -3.6176   -2.2512    0.7128 H       1  UNL1        0.0000
     37 H           4.3995    2.1229   -1.5319 H       1  UNL1        0.0000
     38 H           6.8640    2.1628   -1.6198 H       1  UNL1        0.0000
     39 H           8.1607    0.3094   -0.5575 H       1  UNL1        0.0000
     40 H           6.8934   -1.5282    0.5621 H       1  UNL1        0.0000
@<TRIPOS>BOND
     1     1     2    1
     2     2     3    2
     3     3     4   ar
     4     4     5   ar
     5     5     6   ar
     6     6     7   ar
     7     7     8   ar
     8     8     9   ar
     9     9    10   ar
    10    10    11   ar
    11    11    12   ar
    12    12    13   ar
    13    13    14   ar
    14    14    15   ar
    15    15    16   ar
    16    16    17   ar
    17    17    18   ar
    18    18    19   ar
    19    19    20    2
    20     6    21    1
    21    21    22   ar
    22    22    23   ar
    23    23    24   ar
    24    24    25   ar
    25    25    26   ar
    26    20     1    1
    27    26    21   ar
    28    19     3   ar
    29     8     4   ar
    30    18     9   ar
    31    17    12   ar
    32     1    27    1
    33     1    28    1
    34     2    29    1
    35     5    30    1
    36    10    31    1
    37    13    32    1
    38    14    33    1
    39    15    34    1
    40    16    35    1
    41    20    36    1
    42    22    37    1
    43    23    38    1
    44    24    39    1
    45    25    40    1
