@<TRIPOS>MOLECULE
*****
 79 88 0 0 0
SMALL
GASTEIGER

@<TRIPOS>ATOM
      1 C          -9.9803   -2.6458   -1.0097 C.ar    1  UNL1       -0.0617
      2 C          -9.9967   -1.2802   -0.7458 C.ar    1  UNL1       -0.0611
      3 C          -8.7957   -0.5909   -0.5479 C.ar    1  UNL1       -0.0510
      4 C          -7.5499   -1.2470   -0.6073 C.ar    1  UNL1        0.0193
      5 C          -6.2840   -0.5151   -0.3961 C.ar    1  UNL1        0.1658
      6 N          -6.3252    0.8141   -0.4422 N.ar    1  UNL1       -0.2077
      7 C          -5.1593    1.4277   -0.2551 C.ar    1  UNL1        0.1658
      8 C          -5.1508    2.9042   -0.2868 C.ar    1  UNL1        0.0193
      9 C          -6.2321    3.6322   -0.8222 C.ar    1  UNL1       -0.0510
     10 C          -6.2273    5.0304   -0.8570 C.ar    1  UNL1       -0.0611
     11 C          -5.1394    5.7357   -0.3523 C.ar    1  UNL1       -0.0617
     12 C          -4.0587    5.0451    0.1875 C.ar    1  UNL1       -0.0611
     13 C          -4.0661    3.6467    0.2190 C.ar    1  UNL1       -0.0510
     14 N          -4.0015    0.8000   -0.0418 N.ar    1  UNL1       -0.1920
     15 C          -4.0510   -0.5337   -0.0047 C.ar    1  UNL1        0.2395
     16 N          -2.8235   -1.2610    0.2289 N.ar    1  UNL1       -0.2778
     17 C          -2.7285   -2.6278    0.5343 C.ar    1  UNL1        0.0577
     18 C          -3.7078   -3.6269    0.7254 C.ar    1  UNL1       -0.0371
     19 C          -3.3065   -4.9310    1.0320 C.ar    1  UNL1       -0.0598
     20 C          -1.9632   -5.2485    1.1611 C.ar    1  UNL1       -0.0611
     21 C          -0.9919   -4.2607    0.9938 C.ar    1  UNL1       -0.0520
     22 C          -1.3734   -2.9357    0.6830 C.ar    1  UNL1        0.0081
     23 C          -0.6281   -1.7427    0.4722 C.ar    1  UNL1        0.0086
     24 C           0.7588   -1.4625    0.4973 C.ar    1  UNL1       -0.0443
     25 C           1.2483   -0.1749    0.2225 C.ar    1  UNL1       -0.0172
     26 C           2.6947    0.1052    0.2404 C.ar    1  UNL1       -0.0172
     27 C           3.2172    1.1579    0.9990 C.ar    1  UNL1       -0.0520
     28 C           4.5888    1.4434    1.0266 C.ar    1  UNL1       -0.0367
     29 C           5.4632    0.6570    0.2508 C.ar    1  UNL1        0.0550
     30 C           4.9814   -0.4276   -0.4835 C.ar    1  UNL1        0.0085
     31 C           3.5916   -0.6895   -0.4955 C.ar    1  UNL1       -0.0443
     32 C           6.0964   -1.0735   -1.0920 C.ar    1  UNL1        0.0080
     33 C           6.2151   -2.2038   -1.9318 C.ar    1  UNL1       -0.0520
     34 C           7.4682   -2.5851   -2.4163 C.ar    1  UNL1       -0.0611
     35 C           8.5983   -1.8489   -2.0879 C.ar    1  UNL1       -0.0598
     36 C           8.5070   -0.7285   -1.2563 C.ar    1  UNL1       -0.0372
     37 C           7.2468   -0.3661   -0.7345 C.ar    1  UNL1        0.0549
     38 N           6.8515    0.6890    0.0926 N.ar    1  UNL1       -0.3087
     39 C           7.7286    1.6479    0.6836 C.ar    1  UNL1        0.0472
     40 C           7.3893    3.0070    0.6831 C.ar    1  UNL1       -0.0378
     41 C           8.2515    3.9415    1.2608 C.ar    1  UNL1       -0.0598
     42 C           9.4484    3.5244    1.8416 C.ar    1  UNL1       -0.0616
     43 C           9.7885    2.1724    1.8458 C.ar    1  UNL1       -0.0598
     44 C           8.9329    1.2329    1.2666 C.ar    1  UNL1       -0.0378
     45 C           0.3224    0.8263   -0.0803 C.ar    1  UNL1       -0.0520
     46 C          -1.0567    0.5779   -0.1077 C.ar    1  UNL1       -0.0366
     47 C          -1.5301   -0.7168    0.1861 C.ar    1  UNL1        0.0577
     48 N          -5.1787   -1.2282   -0.1734 N.ar    1  UNL1       -0.1920
     49 C          -7.5670   -2.6284   -0.8808 C.ar    1  UNL1       -0.0510
     50 C          -8.7659   -3.3212   -1.0785 C.ar    1  UNL1       -0.0611
     51 H         -10.9124   -3.1829   -1.1640 H       1  UNL1        0.0618
     52 H         -10.9427   -0.7471   -0.6930 H       1  UNL1        0.0618
     53 H          -8.8397    0.4771   -0.3407 H       1  UNL1        0.0625
     54 H          -7.0961    3.1064   -1.2263 H       1  UNL1        0.0625
     55 H          -7.0747    5.5647   -1.2790 H       1  UNL1        0.0618
     56 H          -5.1343    6.8223   -0.3785 H       1  UNL1        0.0618
     57 H          -3.2075    5.5918    0.5852 H       1  UNL1        0.0618
     58 H          -3.2103    3.1351    0.6555 H       1  UNL1        0.0625
     59 H          -4.7682   -3.4127    0.6515 H       1  UNL1        0.0638
     60 H          -4.0599   -5.7022    1.1757 H       1  UNL1        0.0618
     61 H          -1.6643   -6.2654    1.4016 H       1  UNL1        0.0618
     62 H           0.0587   -4.5137    1.1073 H       1  UNL1        0.0624
     63 H           1.4517   -2.2653    0.7388 H       1  UNL1        0.0630
     64 H           2.5512    1.7693    1.6070 H       1  UNL1        0.0624
     65 H           4.9528    2.2475    1.6591 H       1  UNL1        0.0639
     66 H           3.2193   -1.5207   -1.0900 H       1  UNL1        0.0630
     67 H           5.3321   -2.7718   -2.2119 H       1  UNL1        0.0624
     68 H           7.5540   -3.4528   -3.0658 H       1  UNL1        0.0618
     69 H           9.5664   -2.1396   -2.4890 H       1  UNL1        0.0618
     70 H           9.4001   -0.1491   -1.0427 H       1  UNL1        0.0638
     71 H           6.4823    3.3628    0.2005 H       1  UNL1        0.0638
     72 H           7.9933    4.9975    1.2503 H       1  UNL1        0.0618
     73 H          10.1169    4.2537    2.2922 H       1  UNL1        0.0618
     74 H          10.7172    1.8476    2.3081 H       1  UNL1        0.0618
     75 H           9.2016    0.1803    1.3186 H       1  UNL1        0.0638
     76 H           0.6692    1.8301   -0.3224 H       1  UNL1        0.0624
     77 H          -1.7263    1.3895   -0.3710 H       1  UNL1        0.0639
     78 H          -6.6331   -3.1826   -0.9525 H       1  UNL1        0.0625
     79 H          -8.7469   -4.3870   -1.2893 H       1  UNL1        0.0618
@<TRIPOS>BOND
     1     1     2   ar
     2     2     3   ar
     3     3     4   ar
     4     4     5    1
     5     5     6   ar
     6     6     7   ar
     7     7     8    1
     8     8     9   ar
     9     9    10   ar
    10    10    11   ar
    11    11    12   ar
    12    12    13   ar
    13     7    14   ar
    14    14    15   ar
    15    15    16    1
    16    16    17   ar
    17    17    18   ar
    18    18    19   ar
    19    19    20   ar
    20    20    21   ar
    21    21    22   ar
    22    22    23   ar
    23    23    24   ar
    24    24    25   ar
    25    25    26    1
    26    26    27   ar
    27    27    28   ar
    28    28    29   ar
    29    29    30   ar
    30    30    31   ar
    31    30    32   ar
    32    32    33   ar
    33    33    34   ar
    34    34    35   ar
    35    35    36   ar
    36    36    37   ar
    37    37    38   ar
    38    38    39    1
    39    39    40   ar
    40    40    41   ar
    41    41    42   ar
    42    42    43   ar
    43    43    44   ar
    44    25    45   ar
    45    45    46   ar
    46    46    47   ar
    47    15    48   ar
    48     4    49   ar
    49    49    50   ar
    50    50     1   ar
    51    48     5   ar
    52    13     8   ar
    53    47    16   ar
    54    22    17   ar
    55    47    23   ar
    56    31    26   ar
    57    37    32   ar
    58    44    39   ar
    59    38    29   ar
    60     1    51    1
    61     2    52    1
    62     3    53    1
    63     9    54    1
    64    10    55    1
    65    11    56    1
    66    12    57    1
    67    13    58    1
    68    18    59    1
    69    19    60    1
    70    20    61    1
    71    21    62    1
    72    24    63    1
    73    27    64    1
    74    28    65    1
    75    31    66    1
    76    33    67    1
    77    34    68    1
    78    35    69    1
    79    36    70    1
    80    40    71    1
    81    41    72    1
    82    42    73    1
    83    43    74    1
    84    44    75    1
    85    45    76    1
    86    46    77    1
    87    49    78    1
    88    50    79    1
