@<TRIPOS>MOLECULE
*****
 99 112 0 0 0
SMALL
GASTEIGER

@<TRIPOS>ATOM
      1 C           0.5760   -2.2157   -5.9156 C.ar    1  UNL1       -0.0617
      2 C           1.7246   -2.1531   -5.1345 C.ar    1  UNL1       -0.0611
      3 C           1.6249   -2.0980   -3.7380 C.ar    1  UNL1       -0.0510
      4 C           0.3801   -2.1080   -3.0788 C.ar    1  UNL1        0.0193
      5 C           0.2753   -2.0457   -1.6036 C.ar    1  UNL1        0.1672
      6 N           1.3896   -1.9019   -0.8887 N.ar    1  UNL1       -0.1919
      7 C           1.2382   -1.8517    0.4419 C.ar    1  UNL1        0.2407
      8 N           2.3569   -1.3959    1.2440 N.ar    1  UNL1       -0.2778
      9 C           2.3468   -1.1801    2.6300 C.ar    1  UNL1        0.0577
     10 C           1.4419   -1.5642    3.6401 C.ar    1  UNL1       -0.0371
     11 C           1.6480   -1.1211    4.9458 C.ar    1  UNL1       -0.0598
     12 C           2.7217   -0.3014    5.2587 C.ar    1  UNL1       -0.0611
     13 C           3.6274    0.0751    4.2656 C.ar    1  UNL1       -0.0520
     14 C           3.4517   -0.3831    2.9421 C.ar    1  UNL1        0.0081
     15 C           4.2039   -0.2020    1.7495 C.ar    1  UNL1        0.0100
     16 C           5.3860    0.5166    1.4574 C.ar    1  UNL1       -0.0281
     17 C           5.9267    0.4768    0.1645 C.ar    1  UNL1        0.0479
     18 N           7.0441    1.2952   -0.1655 N.ar    1  UNL1       -0.3087
     19 C           8.1491    0.8908   -0.9161 C.ar    1  UNL1        0.0549
     20 C           8.5211   -0.3703   -1.4294 C.ar    1  UNL1       -0.0372
     21 C           9.7161   -0.4831   -2.1412 C.ar    1  UNL1       -0.0598
     22 C          10.5356    0.6204   -2.3291 C.ar    1  UNL1       -0.0611
     23 C          10.1777    1.8635   -1.8026 C.ar    1  UNL1       -0.0520
     24 C           8.9779    2.0022   -1.0731 C.ar    1  UNL1        0.0079
     25 C           8.3709    3.0991   -0.3903 C.ar    1  UNL1        0.0079
     26 C           8.7455    4.4508   -0.2206 C.ar    1  UNL1       -0.0520
     27 C           7.9120    5.3242    0.4829 C.ar    1  UNL1       -0.0611
     28 C           6.7057    4.8728    0.9993 C.ar    1  UNL1       -0.0598
     29 C           6.3107    3.5383    0.8370 C.ar    1  UNL1       -0.0372
     30 C           7.1715    2.6461    0.1628 C.ar    1  UNL1        0.0549
     31 C           5.3428   -0.3202   -0.8163 C.ar    1  UNL1       -0.0358
     32 C           4.1761   -1.0375   -0.5402 C.ar    1  UNL1       -0.0352
     33 C           3.5825   -0.9372    0.7373 C.ar    1  UNL1        0.0578
     34 N           0.0658   -2.0523    1.0520 N.ar    1  UNL1       -0.1755
     35 C          -1.0039   -2.1202    0.2544 C.ar    1  UNL1        0.2407
     36 N          -2.3017   -2.0947    0.8644 N.ar    1  UNL1       -0.2778
     37 C          -2.6342   -2.6693    2.0907 C.ar    1  UNL1        0.0577
     38 C          -1.9129   -3.5238    2.9464 C.ar    1  UNL1       -0.0371
     39 C          -2.5115   -3.9529    4.1341 C.ar    1  UNL1       -0.0598
     40 C          -3.7985   -3.5537    4.4642 C.ar    1  UNL1       -0.0611
     41 C          -4.5216   -2.7209    3.6062 C.ar    1  UNL1       -0.0520
     42 C          -3.9403   -2.2838    2.3947 C.ar    1  UNL1        0.0081
     43 C          -4.4129   -1.4731    1.3219 C.ar    1  UNL1        0.0100
     44 C          -5.6167   -0.7665    1.1088 C.ar    1  UNL1       -0.0281
     45 C          -5.7885   -0.0138   -0.0622 C.ar    1  UNL1        0.0479
     46 N          -6.9773    0.7560   -0.2383 N.ar    1  UNL1       -0.3087
     47 C          -7.7455    0.8186   -1.4038 C.ar    1  UNL1        0.0549
     48 C          -7.6239    0.1491   -2.6380 C.ar    1  UNL1       -0.0372
     49 C          -8.5677    0.3978   -3.6337 C.ar    1  UNL1       -0.0598
     50 C          -9.6228    1.2709   -3.4107 C.ar    1  UNL1       -0.0611
     51 C          -9.7592    1.9154   -2.1791 C.ar    1  UNL1       -0.0520
     52 C          -8.8137    1.6827   -1.1567 C.ar    1  UNL1        0.0079
     53 C          -8.6840    2.1601    0.1811 C.ar    1  UNL1        0.0079
     54 C          -9.4464    3.0564    0.9639 C.ar    1  UNL1       -0.0520
     55 C          -9.0340    3.3803    2.2584 C.ar    1  UNL1       -0.0611
     56 C          -7.8693    2.8352    2.7776 C.ar    1  UNL1       -0.0598
     57 C          -7.0978    1.9420    2.0266 C.ar    1  UNL1       -0.0372
     58 C          -7.5370    1.5872    0.7337 C.ar    1  UNL1        0.0549
     59 C          -4.7922    0.0086   -1.0350 C.ar    1  UNL1       -0.0358
     60 C          -3.5898   -0.6790   -0.8402 C.ar    1  UNL1       -0.0352
     61 C          -3.4098   -1.4161    0.3514 C.ar    1  UNL1        0.0578
     62 N          -0.9452   -2.1002   -1.0772 N.ar    1  UNL1       -0.1919
     63 C          -0.7643   -2.1827   -3.8979 C.ar    1  UNL1       -0.0510
     64 C          -0.6688   -2.2306   -5.2966 C.ar    1  UNL1       -0.0611
     65 H           0.6559   -2.2588   -6.9991 H       1  UNL1        0.0618
     66 H           2.6999   -2.1536   -5.6138 H       1  UNL1        0.0618
     67 H           2.5483   -2.0513   -3.1678 H       1  UNL1        0.0625
     68 H           0.5911   -2.1966    3.4250 H       1  UNL1        0.0638
     69 H           0.9489   -1.4175    5.7238 H       1  UNL1        0.0618
     70 H           2.8553    0.0513    6.2753 H       1  UNL1        0.0618
     71 H           4.4673    0.7199    4.5164 H       1  UNL1        0.0624
     72 H           5.8719    1.0851    2.2490 H       1  UNL1        0.0645
     73 H           7.9096   -1.2517   -1.2643 H       1  UNL1        0.0638
     74 H          10.0140   -1.4493   -2.5436 H       1  UNL1        0.0618
     75 H          11.4648    0.5178   -2.8824 H       1  UNL1        0.0618
     76 H          10.8294    2.7208   -1.9466 H       1  UNL1        0.0624
     77 H           9.6774    4.8150   -0.6400 H       1  UNL1        0.0624
     78 H           8.2010    6.3643    0.6038 H       1  UNL1        0.0618
     79 H           6.0495    5.5648    1.5224 H       1  UNL1        0.0618
     80 H           5.3448    3.2221    1.2212 H       1  UNL1        0.0638
     81 H           5.7318   -0.3458   -1.8334 H       1  UNL1        0.0639
     82 H           3.7313   -1.6307   -1.3312 H       1  UNL1        0.0639
     83 H          -0.9152   -3.8667    2.6948 H       1  UNL1        0.0638
     84 H          -1.9646   -4.6149    4.8012 H       1  UNL1        0.0618
     85 H          -4.2500   -3.8933    5.3917 H       1  UNL1        0.0618
     86 H          -5.5270   -2.4151    3.8778 H       1  UNL1        0.0624
     87 H          -6.4024   -0.8217    1.8571 H       1  UNL1        0.0645
     88 H          -6.8281   -0.5628   -2.8237 H       1  UNL1        0.0638
     89 H          -8.4913   -0.1171   -4.5899 H       1  UNL1        0.0618
     90 H         -10.3593    1.4473   -4.1886 H       1  UNL1        0.0618
     91 H         -10.5907    2.5920   -2.0065 H       1  UNL1        0.0624
     92 H         -10.3470    3.5067    0.5587 H       1  UNL1        0.0624
     93 H          -9.6156    4.0803    2.8538 H       1  UNL1        0.0618
     94 H          -7.5375    3.1139    3.7759 H       1  UNL1        0.0618
     95 H          -6.1692    1.5570    2.4371 H       1  UNL1        0.0638
     96 H          -4.8920    0.6256   -1.9258 H       1  UNL1        0.0639
     97 H          -2.8021   -0.5841   -1.5835 H       1  UNL1        0.0639
     98 H          -1.7579   -2.2039   -3.4514 H       1  UNL1        0.0625
     99 H          -1.5752   -2.2772   -5.8960 H       1  UNL1        0.0618
@<TRIPOS>BOND
     1     1     2   ar
     2     2     3   ar
     3     3     4   ar
     4     4     5    1
     5     5     6   ar
     6     6     7   ar
     7     7     8    1
     8     8     9   ar
     9     9    10   ar
    10    10    11   ar
    11    11    12   ar
    12    12    13   ar
    13    13    14   ar
    14    14    15   ar
    15    15    16   ar
    16    16    17   ar
    17    17    18    1
    18    18    19   ar
    19    19    20   ar
    20    20    21   ar
    21    21    22   ar
    22    22    23   ar
    23    23    24   ar
    24    24    25   ar
    25    25    26   ar
    26    26    27   ar
    27    27    28   ar
    28    28    29   ar
    29    29    30   ar
    30    17    31   ar
    31    31    32   ar
    32    32    33   ar
    33     7    34   ar
    34    34    35   ar
    35    35    36    1
    36    36    37   ar
    37    37    38   ar
    38    38    39   ar
    39    39    40   ar
    40    40    41   ar
    41    41    42   ar
    42    42    43   ar
    43    43    44   ar
    44    44    45   ar
    45    45    46    1
    46    46    47   ar
    47    47    48   ar
    48    48    49   ar
    49    49    50   ar
    50    50    51   ar
    51    51    52   ar
    52    52    53   ar
    53    53    54   ar
    54    54    55   ar
    55    55    56   ar
    56    56    57   ar
    57    57    58   ar
    58    45    59   ar
    59    59    60   ar
    60    60    61   ar
    61    35    62   ar
    62     4    63   ar
    63    63    64   ar
    64    64     1   ar
    65    62     5   ar
    66    33     8   ar
    67    61    36   ar
    68    14     9   ar
    69    33    15   ar
    70    42    37   ar
    71    61    43   ar
    72    30    18   ar
    73    58    46   ar
    74    24    19   ar
    75    30    25   ar
    76    52    47   ar
    77    58    53   ar
    78     1    65    1
    79     2    66    1
    80     3    67    1
    81    10    68    1
    82    11    69    1
    83    12    70    1
    84    13    71    1
    85    16    72    1
    86    20    73    1
    87    21    74    1
    88    22    75    1
    89    23    76    1
    90    26    77    1
    91    27    78    1
    92    28    79    1
    93    29    80    1
    94    31    81    1
    95    32    82    1
    96    38    83    1
    97    39    84    1
    98    40    85    1
    99    41    86    1
   100    44    87    1
   101    48    88    1
   102    49    89    1
   103    50    90    1
   104    51    91    1
   105    54    92    1
   106    55    93    1
   107    56    94    1
   108    57    95    1
   109    59    96    1
   110    60    97    1
   111    63    98    1
   112    64    99    1
