@<TRIPOS>MOLECULE
*****
 40 43 0 0 0
SMALL
GASTEIGER

@<TRIPOS>ATOM
      1 C           2.5623    1.7499   -4.9891 C.ar    1  UNL1       -0.0617
      2 C           1.4151    2.0977   -4.2830 C.ar    1  UNL1       -0.0611
      3 C           1.1230    1.4688   -3.0679 C.ar    1  UNL1       -0.0510
      4 C           1.9667    0.4783   -2.5271 C.ar    1  UNL1        0.0192
      5 C           1.6563   -0.1854   -1.2430 C.ar    1  UNL1        0.1623
      6 N           0.5112    0.1520   -0.6250 N.ar    1  UNL1       -0.2122
      7 C           0.2257   -0.4571    0.5374 C.ar    1  UNL1        0.1306
      8 N          -0.9759   -0.1225    1.2003 N.pl3   1  UNL1       -0.3243
      9 C          -1.8145    0.8393    0.4971 C.3     1  UNL1        0.0371
     10 C          -3.0687    1.0677    1.2955 C.ar    1  UNL1       -0.0123
     11 C          -4.3001    0.5314    0.9078 C.ar    1  UNL1       -0.0542
     12 C          -5.4301    0.7660    1.6863 C.ar    1  UNL1       -0.0433
     13 C          -5.2903    1.5284    2.8341 C.ar    1  UNL1        0.0276
     14 N          -4.1184    2.0561    3.2458 N.ar    1  UNL1       -0.2629
     15 C          -3.0361    1.8115    2.4713 C.ar    1  UNL1        0.0322
     16 C           1.0972   -1.3922    1.1230 C.ar    1  UNL1        0.0402
     17 C           0.8858   -2.0373    2.3692 C.ar    1  UNL1       -0.0493
     18 C           1.8060   -2.9592    2.8629 C.ar    1  UNL1       -0.0610
     19 C           2.9452   -3.2446    2.1238 C.ar    1  UNL1       -0.0597
     20 C           3.1578   -2.6003    0.9020 C.ar    1  UNL1       -0.0356
     21 C           2.2556   -1.6747    0.3906 C.ar    1  UNL1        0.0767
     22 N           2.5327   -1.0909   -0.7775 N.ar    1  UNL1       -0.2271
     23 C           3.1206    0.1498   -3.2659 C.ar    1  UNL1       -0.0510
     24 C           3.4162    0.7759   -4.4814 C.ar    1  UNL1       -0.0611
     25 H           2.7913    2.2379   -5.9327 H       1  UNL1        0.0618
     26 H           0.7451    2.8594   -4.6733 H       1  UNL1        0.0618
     27 H           0.2200    1.7632   -2.5357 H       1  UNL1        0.0625
     28 H          -1.4862   -0.9777    1.4042 H       1  UNL1        0.1478
     29 H          -1.2973    1.7995    0.3719 H       1  UNL1        0.0512
     30 H          -2.0814    0.4710   -0.5021 H       1  UNL1        0.0512
     31 H          -4.3862   -0.0650    0.0030 H       1  UNL1        0.0622
     32 H          -6.3972    0.3648    1.4050 H       1  UNL1        0.0633
     33 H          -6.1427    1.7402    3.4731 H       1  UNL1        0.0829
     34 H          -2.1059    2.2405    2.8368 H       1  UNL1        0.0833
     35 H           0.0059   -1.8057    2.9654 H       1  UNL1        0.0625
     36 H           1.6358   -3.4447    3.8204 H       1  UNL1        0.0618
     37 H           3.6751   -3.9597    2.4945 H       1  UNL1        0.0618
     38 H           4.0585   -2.8242    0.3341 H       1  UNL1        0.0639
     39 H           3.8073   -0.6085   -2.8920 H       1  UNL1        0.0625
     40 H           4.3148    0.5003   -5.0272 H       1  UNL1        0.0618
@<TRIPOS>BOND
     1     1     2   ar
     2     2     3   ar
     3     3     4   ar
     4     4     5    1
     5     5     6   ar
     6     6     7   ar
     7     7     8    1
     8     8     9    1
     9     9    10    1
    10    10    11   ar
    11    11    12   ar
    12    12    13   ar
    13    13    14   ar
    14    14    15   ar
    15     7    16   ar
    16    16    17   ar
    17    17    18   ar
    18    18    19   ar
    19    19    20   ar
    20    20    21   ar
    21    21    22   ar
    22     4    23   ar
    23    23    24   ar
    24    24     1   ar
    25    22     5   ar
    26    15    10   ar
    27    21    16   ar
    28     1    25    1
    29     2    26    1
    30     3    27    1
    31     8    28    1
    32     9    29    1
    33     9    30    1
    34    11    31    1
    35    12    32    1
    36    13    33    1
    37    15    34    1
    38    17    35    1
    39    18    36    1
    40    19    37    1
    41    20    38    1
    42    23    39    1
    43    24    40    1
