@<TRIPOS>MOLECULE
*****
 70 77 0 0 0
SMALL
GASTEIGER

@<TRIPOS>ATOM
      1 C          -9.6609    0.2028   -0.1077 C.ar    1  UNL1       -0.0617
      2 C          -8.7618    0.7213    0.8219 C.ar    1  UNL1       -0.0611
      3 C          -7.4265    0.9262    0.4659 C.ar    1  UNL1       -0.0510
      4 C          -6.9748    0.5982   -0.8201 C.ar    1  UNL1        0.0196
      5 C          -5.5834    0.8080   -1.2260 C.ar    1  UNL1        0.1690
      6 N          -5.2388    1.5016   -2.2949 N.ar    1  UNL1       -0.1284
      7 N          -3.8815    1.6245   -2.3180 N.ar    1  UNL1       -0.1284
      8 C          -3.3803    0.9486   -1.3025 C.ar    1  UNL1        0.1690
      9 C          -1.9451    0.7545   -1.0962 C.ar    1  UNL1        0.0197
     10 C          -1.1030    1.8727   -1.0252 C.ar    1  UNL1       -0.0493
     11 C           0.2696    1.7147   -0.8211 C.ar    1  UNL1       -0.0393
     12 C           0.8231    0.4328   -0.7016 C.ar    1  UNL1        0.0389
     13 N           2.2274    0.2700   -0.4805 N.pl3   1  UNL1       -0.2656
     14 C           3.1396    0.2372   -1.5977 C.ar    1  UNL1        0.0604
     15 C           2.6728    0.3432   -2.9271 C.ar    1  UNL1       -0.0382
     16 C           3.5479    0.3248   -4.0137 C.ar    1  UNL1       -0.0599
     17 C           4.9113    0.2015   -3.7972 C.ar    1  UNL1       -0.0599
     18 C           5.3972    0.0886   -2.4945 C.ar    1  UNL1       -0.0382
     19 C           4.5317    0.0961   -1.3767 C.ar    1  UNL1        0.0604
     20 N           5.0433   -0.0320   -0.0336 N.pl3   1  UNL1       -0.2656
     21 C           6.4490   -0.1858    0.1913 C.ar    1  UNL1        0.0389
     22 C           7.0421   -1.4555    0.1282 C.ar    1  UNL1       -0.0400
     23 C           8.4105   -1.6053    0.3567 C.ar    1  UNL1       -0.0600
     24 C           9.1936   -0.4888    0.6538 C.ar    1  UNL1       -0.0616
     25 C           8.6128    0.7781    0.7175 C.ar    1  UNL1       -0.0600
     26 C           7.2457    0.9310    0.4861 C.ar    1  UNL1       -0.0400
     27 C           4.1298   -0.0074    1.0831 C.ar    1  UNL1        0.0604
     28 C           4.5928   -0.1401    2.4122 C.ar    1  UNL1       -0.0382
     29 C           3.7204   -0.1068    3.4997 C.ar    1  UNL1       -0.0599
     30 C           2.3614    0.0578    3.2846 C.ar    1  UNL1       -0.0599
     31 C           1.8778    0.1836    1.9822 C.ar    1  UNL1       -0.0382
     32 C           2.7402    0.1489    0.8628 C.ar    1  UNL1        0.0604
     33 C          -0.0126   -0.6881   -0.8019 C.ar    1  UNL1       -0.0393
     34 C          -1.3857   -0.5283   -1.0044 C.ar    1  UNL1       -0.0493
     35 N          -4.4271    0.4102   -0.5530 N.ar    1  UNL1       -0.2752
     36 C          -4.3316   -0.3753    0.6327 C.ar    1  UNL1        0.0500
     37 C          -3.3680   -0.0743    1.6060 C.ar    1  UNL1       -0.0377
     38 C          -3.2759   -0.8476    2.7653 C.ar    1  UNL1       -0.0598
     39 C          -4.1418   -1.9208    2.9610 C.ar    1  UNL1       -0.0616
     40 C          -5.1020   -2.2240    1.9981 C.ar    1  UNL1       -0.0598
     41 C          -5.1995   -1.4562    0.8354 C.ar    1  UNL1       -0.0377
     42 C          -7.8952    0.1012   -1.7536 C.ar    1  UNL1       -0.0510
     43 C          -9.2299   -0.1028   -1.3973 C.ar    1  UNL1       -0.0611
     44 H         -10.7012    0.0498    0.1683 H       1  UNL1        0.0618
     45 H          -9.1014    0.9764    1.8231 H       1  UNL1        0.0618
     46 H          -6.7470    1.3500    1.2015 H       1  UNL1        0.0625
     47 H          -1.5142    2.8754   -1.1280 H       1  UNL1        0.0625
     48 H           0.9133    2.5887   -0.7587 H       1  UNL1        0.0636
     49 H           1.6123    0.4441   -3.1424 H       1  UNL1        0.0637
     50 H           3.1586    0.4092   -5.0246 H       1  UNL1        0.0618
     51 H           5.6005    0.1932   -4.6377 H       1  UNL1        0.0618
     52 H           6.4727   -0.0037   -2.3668 H       1  UNL1        0.0637
     53 H           6.4297   -2.3250   -0.0980 H       1  UNL1        0.0636
     54 H           8.8636   -2.5915    0.3075 H       1  UNL1        0.0618
     55 H          10.2588   -0.6071    0.8373 H       1  UNL1        0.0618
     56 H           9.2239    1.6469    0.9514 H       1  UNL1        0.0618
     57 H           6.7919    1.9180    0.5365 H       1  UNL1        0.0636
     58 H           5.6503   -0.2734    2.6237 H       1  UNL1        0.0637
     59 H           4.1080   -0.2084    4.5098 H       1  UNL1        0.0618
     60 H           1.6747    0.0885    4.1257 H       1  UNL1        0.0618
     61 H           0.8063    0.3104    1.8566 H       1  UNL1        0.0637
     62 H           0.4121   -1.6864   -0.7256 H       1  UNL1        0.0636
     63 H          -2.0098   -1.4150   -1.0929 H       1  UNL1        0.0625
     64 H          -2.6990    0.7767    1.5066 H       1  UNL1        0.0638
     65 H          -2.5313   -0.6073    3.5205 H       1  UNL1        0.0618
     66 H          -4.0688   -2.5224    3.8640 H       1  UNL1        0.0618
     67 H          -5.7736   -3.0652    2.1498 H       1  UNL1        0.0618
     68 H          -5.9378   -1.7468    0.0915 H       1  UNL1        0.0638
     69 H          -7.5742   -0.1246   -2.7692 H       1  UNL1        0.0625
     70 H          -9.9330   -0.4894   -2.1300 H       1  UNL1        0.0618
@<TRIPOS>BOND
     1     1     2   ar
     2     2     3   ar
     3     3     4   ar
     4     4     5    1
     5     5     6   ar
     6     6     7   ar
     7     7     8   ar
     8     8     9    1
     9     9    10   ar
    10    10    11   ar
    11    11    12   ar
    12    12    13    1
    13    13    14    1
    14    14    15   ar
    15    15    16   ar
    16    16    17   ar
    17    17    18   ar
    18    18    19   ar
    19    19    20    1
    20    20    21    1
    21    21    22   ar
    22    22    23   ar
    23    23    24   ar
    24    24    25   ar
    25    25    26   ar
    26    20    27    1
    27    27    28   ar
    28    28    29   ar
    29    29    30   ar
    30    30    31   ar
    31    31    32   ar
    32    12    33   ar
    33    33    34   ar
    34     8    35   ar
    35    35    36    1
    36    36    37   ar
    37    37    38   ar
    38    38    39   ar
    39    39    40   ar
    40    40    41   ar
    41     4    42   ar
    42    42    43   ar
    43    43     1   ar
    44    35     5   ar
    45    41    36   ar
    46    34     9   ar
    47    32    13    1
    48    19    14   ar
    49    26    21   ar
    50    32    27   ar
    51     1    44    1
    52     2    45    1
    53     3    46    1
    54    10    47    1
    55    11    48    1
    56    15    49    1
    57    16    50    1
    58    17    51    1
    59    18    52    1
    60    22    53    1
    61    23    54    1
    62    24    55    1
    63    25    56    1
    64    26    57    1
    65    28    58    1
    66    29    59    1
    67    30    60    1
    68    31    61    1
    69    33    62    1
    70    34    63    1
    71    37    64    1
    72    38    65    1
    73    39    66    1
    74    40    67    1
    75    41    68    1
    76    42    69    1
    77    43    70    1
