@<TRIPOS>MOLECULE
*****
 59 65 0 0 0
SMALL
GASTEIGER

@<TRIPOS>ATOM
      1 C           8.1896   -0.4139   -0.1445 C.ar    1  UNL1       -0.0617
      2 C           7.6889   -1.4349   -0.9499 C.ar    1  UNL1       -0.0611
      3 C           6.3392   -1.7853   -0.8742 C.ar    1  UNL1       -0.0510
      4 C           5.4743   -1.1094   -0.0024 C.ar    1  UNL1        0.0196
      5 C           4.0663   -1.5054    0.0613 C.ar    1  UNL1        0.1690
      6 N           3.6725   -2.7485    0.2648 N.ar    1  UNL1       -0.1284
      7 N           2.3165   -2.7608    0.4033 N.ar    1  UNL1       -0.1284
      8 C           1.8628   -1.5363    0.2163 C.ar    1  UNL1        0.1690
      9 C           0.4378   -1.2077    0.1589 C.ar    1  UNL1        0.0197
     10 C          -0.4000   -1.5950    1.2136 C.ar    1  UNL1       -0.0493
     11 C          -1.7644   -1.2958    1.1832 C.ar    1  UNL1       -0.0393
     12 C          -2.3158   -0.6169    0.0886 C.ar    1  UNL1        0.0390
     13 N          -3.7086   -0.3077    0.0567 N.pl3   1  UNL1       -0.2627
     14 C          -4.1893    0.9950    0.4133 C.ar    1  UNL1        0.0813
     15 C          -3.3403    2.0370    0.8267 C.ar    1  UNL1       -0.0364
     16 C          -3.8526    3.2935    1.1677 C.ar    1  UNL1       -0.0598
     17 C          -5.2228    3.5309    1.1051 C.ar    1  UNL1       -0.0582
     18 C          -6.0820    2.5110    0.7045 C.ar    1  UNL1       -0.0175
     19 C          -5.5687    1.2552    0.3642 C.ar    1  UNL1        0.1501
     20 O          -6.4990    0.3124   -0.0086 O.3     1  UNL1       -0.4523
     21 C          -6.0398   -0.9391   -0.3497 C.ar    1  UNL1        0.1501
     22 C          -7.0209   -1.8625   -0.7254 C.ar    1  UNL1       -0.0175
     23 C          -6.6573   -3.1539   -1.0982 C.ar    1  UNL1       -0.0582
     24 C          -5.3141   -3.5191   -1.0979 C.ar    1  UNL1       -0.0598
     25 C          -4.3336   -2.5946   -0.7218 C.ar    1  UNL1       -0.0364
     26 C          -4.6791   -1.2877   -0.3350 C.ar    1  UNL1        0.0813
     27 C          -1.4845   -0.2516   -0.9787 C.ar    1  UNL1       -0.0393
     28 C          -0.1200   -0.5511   -0.9473 C.ar    1  UNL1       -0.0493
     29 N           2.9436   -0.6784    0.0072 N.ar    1  UNL1       -0.2752
     30 C           2.9051    0.7287   -0.2162 C.ar    1  UNL1        0.0500
     31 C           3.7699    1.3204   -1.1470 C.ar    1  UNL1       -0.0377
     32 C           3.7258    2.6991   -1.3656 C.ar    1  UNL1       -0.0598
     33 C           2.8232    3.4922   -0.6602 C.ar    1  UNL1       -0.0616
     34 C           1.9618    2.9098    0.2672 C.ar    1  UNL1       -0.0598
     35 C           1.9998    1.5320    0.4917 C.ar    1  UNL1       -0.0377
     36 C           5.9952   -0.1008    0.8209 C.ar    1  UNL1       -0.0510
     37 C           7.3453    0.2499    0.7436 C.ar    1  UNL1       -0.0611
     38 H           9.2415   -0.1447   -0.1996 H       1  UNL1        0.0618
     39 H           8.3494   -1.9658   -1.6308 H       1  UNL1        0.0618
     40 H           5.9624   -2.5955   -1.4965 H       1  UNL1        0.0625
     41 H           0.0084   -2.1357    2.0660 H       1  UNL1        0.0625
     42 H          -2.4023   -1.5954    2.0114 H       1  UNL1        0.0636
     43 H          -2.2665    1.8877    0.8941 H       1  UNL1        0.0637
     44 H          -3.1779    4.0850    1.4841 H       1  UNL1        0.0618
     45 H          -5.6216    4.5063    1.3706 H       1  UNL1        0.0619
     46 H          -7.1529    2.6887    0.6580 H       1  UNL1        0.0655
     47 H          -8.0674   -1.5703   -0.7279 H       1  UNL1        0.0655
     48 H          -7.4187   -3.8721   -1.3908 H       1  UNL1        0.0619
     49 H          -5.0232   -4.5248   -1.3918 H       1  UNL1        0.0618
     50 H          -3.2957   -2.9162   -0.7407 H       1  UNL1        0.0637
     51 H          -1.9064    0.2605   -1.8405 H       1  UNL1        0.0636
     52 H           0.4977   -0.2714   -1.7981 H       1  UNL1        0.0625
     53 H           4.4643    0.7312   -1.7416 H       1  UNL1        0.0638
     54 H           4.3940    3.1539   -2.0933 H       1  UNL1        0.0618
     55 H           2.7917    4.5652   -0.8332 H       1  UNL1        0.0618
     56 H           1.2630    3.5310    0.8225 H       1  UNL1        0.0618
     57 H           1.3370    1.1196    1.2489 H       1  UNL1        0.0638
     58 H           5.3592    0.4167    1.5355 H       1  UNL1        0.0625
     59 H           7.7393    1.0356    1.3836 H       1  UNL1        0.0618
@<TRIPOS>BOND
     1     1     2   ar
     2     2     3   ar
     3     3     4   ar
     4     4     5    1
     5     5     6   ar
     6     6     7   ar
     7     7     8   ar
     8     8     9    1
     9     9    10   ar
    10    10    11   ar
    11    11    12   ar
    12    12    13    1
    13    13    14    1
    14    14    15   ar
    15    15    16   ar
    16    16    17   ar
    17    17    18   ar
    18    18    19   ar
    19    19    20    1
    20    20    21    1
    21    21    22   ar
    22    22    23   ar
    23    23    24   ar
    24    24    25   ar
    25    25    26   ar
    26    12    27   ar
    27    27    28   ar
    28     8    29   ar
    29    29    30    1
    30    30    31   ar
    31    31    32   ar
    32    32    33   ar
    33    33    34   ar
    34    34    35   ar
    35     4    36   ar
    36    36    37   ar
    37    37     1   ar
    38    29     5   ar
    39    35    30   ar
    40    28     9   ar
    41    26    13    1
    42    19    14   ar
    43    26    21   ar
    44     1    38    1
    45     2    39    1
    46     3    40    1
    47    10    41    1
    48    11    42    1
    49    15    43    1
    50    16    44    1
    51    17    45    1
    52    18    46    1
    53    22    47    1
    54    23    48    1
    55    24    49    1
    56    25    50    1
    57    27    51    1
    58    28    52    1
    59    31    53    1
    60    32    54    1
    61    33    55    1
    62    34    56    1
    63    35    57    1
    64    36    58    1
    65    37    59    1
