@<TRIPOS>MOLECULE
*****
 48 53 0 0 0
SMALL
GASTEIGER

@<TRIPOS>ATOM
      1 C           8.1809    0.9928    1.7902 C.ar    1  UNL1       -0.0617
      2 C           6.9201    1.5466    2.0013 C.ar    1  UNL1       -0.0610
      3 C           5.7892    0.9495    1.4368 C.ar    1  UNL1       -0.0494
      4 C           5.9054   -0.2095    0.6538 C.ar    1  UNL1        0.0385
      5 C           4.7447   -0.8539    0.0527 C.ar    1  UNL1        0.2487
      6 N           4.6693   -1.9327   -0.7010 N.ar    1  UNL1       -0.1070
      7 N           3.3342   -2.1088   -1.0029 N.ar    1  UNL1       -0.1070
      8 C           2.6839   -1.1257   -0.4135 C.ar    1  UNL1        0.2487
      9 C           1.2583   -0.8225   -0.3974 C.ar    1  UNL1        0.0386
     10 C           0.3650   -1.6541   -1.0911 C.ar    1  UNL1       -0.0477
     11 C          -1.0077   -1.3881   -1.0935 C.ar    1  UNL1       -0.0393
     12 C          -1.5145   -0.2824   -0.4003 C.ar    1  UNL1        0.0390
     13 N          -2.9141   -0.0084   -0.4008 N.pl3   1  UNL1       -0.2627
     14 C          -3.7782   -0.5529    0.6048 C.ar    1  UNL1        0.0813
     15 C          -3.3176   -1.3881    1.6377 C.ar    1  UNL1       -0.0364
     16 C          -4.1966   -1.8980    2.5993 C.ar    1  UNL1       -0.0598
     17 C          -5.5514   -1.5827    2.5463 C.ar    1  UNL1       -0.0582
     18 C          -6.0286   -0.7573    1.5314 C.ar    1  UNL1       -0.0175
     19 C          -5.1490   -0.2484    0.5705 C.ar    1  UNL1        0.1501
     20 O          -5.7165    0.5564   -0.3907 O.3     1  UNL1       -0.4523
     21 C          -4.8889    1.0765   -1.3594 C.ar    1  UNL1        0.1501
     22 C          -5.5100    1.8848   -2.3170 C.ar    1  UNL1       -0.0175
     23 C          -4.7582    2.4583   -3.3392 C.ar    1  UNL1       -0.0582
     24 C          -3.3876    2.2232   -3.4027 C.ar    1  UNL1       -0.0598
     25 C          -2.7674    1.4147   -2.4441 C.ar    1  UNL1       -0.0364
     26 C          -3.5075    0.8261   -1.4037 C.ar    1  UNL1        0.0813
     27 C          -0.6297    0.5521    0.2942 C.ar    1  UNL1       -0.0393
     28 C           0.7431    0.2842    0.2953 C.ar    1  UNL1       -0.0477
     29 O           3.5173   -0.2850    0.2786 O.2     1  UNL1       -0.4158
     30 C           7.1832   -0.7539    0.4515 C.ar    1  UNL1       -0.0494
     31 C           8.3137   -0.1572    1.0157 C.ar    1  UNL1       -0.0610
     32 H           9.0603    1.4573    2.2294 H       1  UNL1        0.0618
     33 H           6.8158    2.4443    2.6058 H       1  UNL1        0.0618
     34 H           4.8163    1.4018    1.6169 H       1  UNL1        0.0625
     35 H           0.7347   -2.5207   -1.6381 H       1  UNL1        0.0626
     36 H          -1.6851   -2.0432   -1.6364 H       1  UNL1        0.0636
     37 H          -2.2676   -1.6576    1.7114 H       1  UNL1        0.0637
     38 H          -3.8187   -2.5429    3.3889 H       1  UNL1        0.0618
     39 H          -6.2344   -1.9791    3.2930 H       1  UNL1        0.0619
     40 H          -7.0852   -0.5082    1.4845 H       1  UNL1        0.0655
     41 H          -6.5802    2.0642   -2.2625 H       1  UNL1        0.0655
     42 H          -5.2402    3.0860   -4.0841 H       1  UNL1        0.0619
     43 H          -2.7959    2.6676   -4.1993 H       1  UNL1        0.0618
     44 H          -1.6962    1.2535   -2.5276 H       1  UNL1        0.0637
     45 H          -1.0142    1.4135    0.8356 H       1  UNL1        0.0636
     46 H           1.4031    0.9522    0.8447 H       1  UNL1        0.0626
     47 H           7.3059   -1.6529   -0.1514 H       1  UNL1        0.0625
     48 H           9.2964   -0.5917    0.8493 H       1  UNL1        0.0618
@<TRIPOS>BOND
     1     1     2   ar
     2     2     3   ar
     3     3     4   ar
     4     4     5    1
     5     5     6   ar
     6     6     7   ar
     7     7     8   ar
     8     8     9    1
     9     9    10   ar
    10    10    11   ar
    11    11    12   ar
    12    12    13    1
    13    13    14    1
    14    14    15   ar
    15    15    16   ar
    16    16    17   ar
    17    17    18   ar
    18    18    19   ar
    19    19    20    1
    20    20    21    1
    21    21    22   ar
    22    22    23   ar
    23    23    24   ar
    24    24    25   ar
    25    25    26   ar
    26    12    27   ar
    27    27    28   ar
    28     8    29   ar
    29     4    30   ar
    30    30    31   ar
    31    31     1   ar
    32    29     5   ar
    33    28     9   ar
    34    26    13    1
    35    19    14   ar
    36    26    21   ar
    37     1    32    1
    38     2    33    1
    39     3    34    1
    40    10    35    1
    41    11    36    1
    42    15    37    1
    43    16    38    1
    44    17    39    1
    45    18    40    1
    46    22    41    1
    47    23    42    1
    48    24    43    1
    49    25    44    1
    50    27    45    1
    51    28    46    1
    52    30    47    1
    53    31    48    1
