@<TRIPOS>MOLECULE
*****
 49 55 0 0 0
SMALL
GASTEIGER

@<TRIPOS>ATOM
      1 C           7.1597    1.5937    0.3216 C.ar    1  UNL1       -0.0617
      2 C           6.4900    1.1768    1.4705 C.ar    1  UNL1       -0.0612
      3 C           5.1533    0.7799    1.3947 C.ar    1  UNL1       -0.0540
      4 C           4.4713    0.7926    0.1682 C.ar    1  UNL1       -0.0173
      5 C           5.1583    1.2179   -0.9793 C.ar    1  UNL1       -0.0540
      6 C           6.4949    1.6148   -0.9031 C.ar    1  UNL1       -0.0612
      7 C           3.0589    0.3793    0.0891 C.ar    1  UNL1       -0.0096
      8 C           2.0843    1.3743    0.2703 C.ar    1  UNL1       -0.0456
      9 C           0.7204    1.0927    0.2155 C.ar    1  UNL1       -0.0132
     10 C          -0.1951    2.1355    0.4057 C.ar    1  UNL1       -0.0532
     11 C          -1.5746    1.9200    0.3630 C.ar    1  UNL1       -0.0498
     12 C          -2.0599    0.6241    0.1231 C.ar    1  UNL1        0.0291
     13 C          -1.1239   -0.3962   -0.0629 C.ar    1  UNL1        0.1445
     14 O          -1.7886   -1.5675   -0.2802 O.2     1  UNL1       -0.4542
     15 C          -3.1180   -1.3203   -0.2375 C.ar    1  UNL1        0.1369
     16 C          -4.0955   -2.2933   -0.4190 C.ar    1  UNL1       -0.0181
     17 C          -5.4232   -1.8718   -0.3442 C.ar    1  UNL1       -0.0505
     18 C          -5.7551   -0.5327   -0.0980 C.ar    1  UNL1       -0.0171
     19 C          -7.1002   -0.1388   -0.0283 C.ar    1  UNL1       -0.0540
     20 C          -7.4473    1.1904    0.2160 C.ar    1  UNL1       -0.0612
     21 C          -6.4545    2.1476    0.3946 C.ar    1  UNL1       -0.0611
     22 C          -5.1087    1.7812    0.3299 C.ar    1  UNL1       -0.0533
     23 C          -4.7333    0.4427    0.0840 C.ar    1  UNL1       -0.0065
     24 C          -3.3654    0.0236    0.0097 C.ar    1  UNL1        0.0356
     25 C           0.2998   -0.2398   -0.0310 C.ar    1  UNL1        0.0327
     26 C           1.2782   -1.2908   -0.2225 C.ar    1  UNL1       -0.0061
     27 C           0.9516   -2.6502   -0.4737 C.ar    1  UNL1       -0.0533
     28 C           1.9176   -3.6425   -0.6544 C.ar    1  UNL1       -0.0611
     29 C           3.2568   -3.3119   -0.5907 C.ar    1  UNL1       -0.0611
     30 C           3.6208   -1.9906   -0.3464 C.ar    1  UNL1       -0.0534
     31 C           2.6630   -0.9623   -0.1590 C.ar    1  UNL1       -0.0095
     32 H           8.2003    1.9022    0.3807 H       1  UNL1        0.0618
     33 H           7.0072    1.1598    2.4262 H       1  UNL1        0.0618
     34 H           4.6413    0.4547    2.2983 H       1  UNL1        0.0624
     35 H           4.6501    1.2369   -1.9414 H       1  UNL1        0.0624
     36 H           7.0160    1.9395   -1.7999 H       1  UNL1        0.0618
     37 H           2.4176    2.3952    0.4592 H       1  UNL1        0.0630
     38 H           0.1586    3.1489    0.5932 H       1  UNL1        0.0624
     39 H          -2.2410    2.7607    0.5165 H       1  UNL1        0.0625
     40 H          -3.8319   -3.3268   -0.6089 H       1  UNL1        0.0655
     41 H          -6.2079   -2.6138   -0.4826 H       1  UNL1        0.0625
     42 H          -7.8959   -0.8685   -0.1645 H       1  UNL1        0.0624
     43 H          -8.4947    1.4770    0.2666 H       1  UNL1        0.0618
     44 H          -6.7261    3.1828    0.5849 H       1  UNL1        0.0618
     45 H          -4.3660    2.5558    0.4743 H       1  UNL1        0.0624
     46 H          -0.0821   -2.9743   -0.5356 H       1  UNL1        0.0624
     47 H           1.6131   -4.6681   -0.8441 H       1  UNL1        0.0618
     48 H           4.0198   -4.0724   -0.7292 H       1  UNL1        0.0618
     49 H           4.6859   -1.7682   -0.3032 H       1  UNL1        0.0624
@<TRIPOS>BOND
     1     1     2   ar
     2     2     3   ar
     3     3     4   ar
     4     4     5   ar
     5     5     6   ar
     6     4     7    1
     7     7     8   ar
     8     8     9   ar
     9     9    10   ar
    10    10    11   ar
    11    11    12   ar
    12    12    13   ar
    13    13    14   ar
    14    14    15   ar
    15    15    16   ar
    16    16    17   ar
    17    17    18   ar
    18    18    19   ar
    19    19    20   ar
    20    20    21   ar
    21    21    22   ar
    22    22    23   ar
    23    23    24   ar
    24    13    25   ar
    25    25    26   ar
    26    26    27   ar
    27    27    28   ar
    28    28    29   ar
    29    29    30   ar
    30    30    31   ar
    31     6     1   ar
    32    31     7   ar
    33    25     9   ar
    34    31    26   ar
    35    24    12   ar
    36    24    15   ar
    37    23    18   ar
    38     1    32    1
    39     2    33    1
    40     3    34    1
    41     5    35    1
    42     6    36    1
    43     8    37    1
    44    10    38    1
    45    11    39    1
    46    16    40    1
    47    17    41    1
    48    19    42    1
    49    20    43    1
    50    21    44    1
    51    22    45    1
    52    27    46    1
    53    28    47    1
    54    29    48    1
    55    30    49    1
