@<TRIPOS>MOLECULE
*****
 41 47 0 0 0
SMALL
GASTEIGER

@<TRIPOS>ATOM
      1 C          -6.0692   -1.2730   -0.2537 C.ar    1  UNL1       -0.0617
      2 C          -5.4015   -1.3566    0.9666 C.ar    1  UNL1       -0.0612
      3 C          -4.0687   -0.9509    1.0631 C.ar    1  UNL1       -0.0540
      4 C          -3.3887   -0.4543   -0.0596 C.ar    1  UNL1       -0.0172
      5 C          -4.0735   -0.3793   -1.2822 C.ar    1  UNL1       -0.0540
      6 C          -5.4062   -0.7851   -1.3781 C.ar    1  UNL1       -0.0612
      7 C          -1.9826   -0.0287    0.0413 C.ar    1  UNL1       -0.0067
      8 C          -0.9913   -1.0004   -0.1975 C.ar    1  UNL1       -0.0104
      9 C           0.3424   -0.6135   -0.1059 C.ar    1  UNL1        0.1380
     10 O           1.3851   -1.4620   -0.3148 O.2     1  UNL1       -0.4535
     11 C           2.5016   -0.7071   -0.1331 C.ar    1  UNL1        0.1531
     12 C           2.1693    0.5750    0.1800 C.ar    1  UNL1        0.0669
     13 S           3.6045    1.5522    0.4151 S.2     1  UNL1       -0.0842
     14 C           4.6413    0.1917    0.0817 C.ar    1  UNL1        0.0257
     15 C           6.0522    0.1290    0.0636 C.ar    1  UNL1       -0.0451
     16 C           6.7067   -1.0854   -0.2335 C.ar    1  UNL1       -0.0324
     17 C           5.8979   -2.2157   -0.5072 C.ar    1  UNL1        0.1006
     18 N           6.3399   -3.4515   -0.8091 N.ar    1  UNL1       -0.1908
     19 S           4.9786   -4.4049   -1.0387 S.2     1  UNL1        0.1165
     20 N           3.7632   -3.2840   -0.7633 N.ar    1  UNL1       -0.1900
     21 C           4.4421   -2.1815   -0.4961 C.ar    1  UNL1        0.1116
     22 C           3.8715   -0.9165   -0.1868 C.ar    1  UNL1        0.0602
     23 C           0.7460    0.6752    0.2073 C.ar    1  UNL1        0.0423
     24 C          -0.2404    1.6666    0.4509 C.ar    1  UNL1       -0.0055
     25 C           0.1401    2.9876    0.7721 C.ar    1  UNL1       -0.0533
     26 C          -0.8244    3.9636    1.0119 C.ar    1  UNL1       -0.0611
     27 C          -2.1723    3.6369    0.9351 C.ar    1  UNL1       -0.0611
     28 C          -2.5613    2.3322    0.6179 C.ar    1  UNL1       -0.0534
     29 C          -1.6169    1.3100    0.3668 C.ar    1  UNL1       -0.0094
     30 H          -7.1062   -1.5900   -0.3288 H       1  UNL1        0.0618
     31 H          -5.9167   -1.7389    1.8440 H       1  UNL1        0.0618
     32 H          -3.5585   -1.0215    2.0216 H       1  UNL1        0.0624
     33 H          -3.5670   -0.0004   -2.1676 H       1  UNL1        0.0624
     34 H          -5.9252   -0.7213   -2.3310 H       1  UNL1        0.0618
     35 H          -1.2488   -2.0252   -0.4467 H       1  UNL1        0.0661
     36 H           6.6413    1.0183    0.2791 H       1  UNL1        0.0629
     37 H           7.7887   -1.1568   -0.2530 H       1  UNL1        0.0640
     38 H           1.1862    3.2712    0.8391 H       1  UNL1        0.0624
     39 H          -0.5226    4.9782    1.2586 H       1  UNL1        0.0618
     40 H          -2.9283    4.3956    1.1215 H       1  UNL1        0.0618
     41 H          -3.6284    2.1211    0.5686 H       1  UNL1        0.0624
@<TRIPOS>BOND
     1     1     2   ar
     2     2     3   ar
     3     3     4   ar
     4     4     5   ar
     5     5     6   ar
     6     4     7    1
     7     7     8   ar
     8     8     9   ar
     9     9    10   ar
    10    10    11   ar
    11    11    12   ar
    12    12    13   ar
    13    13    14   ar
    14    14    15   ar
    15    15    16   ar
    16    16    17   ar
    17    17    18   ar
    18    18    19   ar
    19    19    20   ar
    20    20    21   ar
    21    21    22   ar
    22    12    23   ar
    23    23    24   ar
    24    24    25   ar
    25    25    26   ar
    26    26    27   ar
    27    27    28   ar
    28    28    29   ar
    29     6     1   ar
    30    29     7   ar
    31    23     9   ar
    32    29    24   ar
    33    22    11   ar
    34    22    14   ar
    35    21    17   ar
    36     1    30    1
    37     2    31    1
    38     3    32    1
    39     5    33    1
    40     6    34    1
    41     8    35    1
    42    15    36    1
    43    16    37    1
    44    25    38    1
    45    26    39    1
    46    27    40    1
    47    28    41    1
