@<TRIPOS>MOLECULE
*****
 37 40 0 0 0
SMALL
GASTEIGER

@<TRIPOS>ATOM
      1 C           6.3347   -0.4786    1.1459 C.ar    1  UNL1       -0.0617
      2 C           5.8005    0.7352    0.7264 C.ar    1  UNL1       -0.0611
      3 C           4.4594    0.8119    0.3383 C.ar    1  UNL1       -0.0526
      4 C           3.6208   -0.3189    0.3536 C.ar    1  UNL1        0.0003
      5 C           4.1860   -1.5313    0.7921 C.ar    1  UNL1       -0.0526
      6 C           5.5277   -1.6117    1.1819 C.ar    1  UNL1       -0.0611
      7 C           2.2070   -0.2140   -0.0679 C.ar    1  UNL1        0.0710
      8 C           1.5120   -1.2662   -0.6650 C.ar    1  UNL1       -0.0351
      9 C           0.1766   -1.0890   -1.0328 C.ar    1  UNL1       -0.0505
     10 C          -0.4545    0.1341   -0.8038 C.ar    1  UNL1        0.0008
     11 C           0.3156    1.1317   -0.2149 C.ar    1  UNL1        0.0360
     12 N           1.6129    0.9873    0.1505 N.ar    1  UNL1       -0.2544
     13 C          -1.8566    0.3597   -1.1757 C.ar    1  UNL1       -0.0087
     14 C          -2.1449    0.6811   -2.5153 C.ar    1  UNL1       -0.0534
     15 C          -3.4513    0.9152   -2.9310 C.ar    1  UNL1       -0.0606
     16 C          -4.4942    0.8312   -2.0135 C.ar    1  UNL1       -0.0540
     17 C          -4.2486    0.5103   -0.6705 C.ar    1  UNL1       -0.0173
     18 C          -5.3157    0.4283    0.2396 C.ar    1  UNL1       -0.0540
     19 C          -5.0957    0.1075    1.5781 C.ar    1  UNL1       -0.0612
     20 C          -3.8044   -0.1374    2.0245 C.ar    1  UNL1       -0.0611
     21 C          -2.7327   -0.0597    1.1322 C.ar    1  UNL1       -0.0534
     22 C          -2.9213    0.2675   -0.2321 C.ar    1  UNL1       -0.0101
     23 H           7.3759   -0.5395    1.4510 H       1  UNL1        0.0618
     24 H           6.4216    1.6267    0.7021 H       1  UNL1        0.0618
     25 H           4.0613    1.7734    0.0163 H       1  UNL1        0.0624
     26 H           3.5811   -2.4327    0.8562 H       1  UNL1        0.0624
     27 H           5.9381   -2.5597    1.5201 H       1  UNL1        0.0618
     28 H           1.9945   -2.2171   -0.8645 H       1  UNL1        0.0639
     29 H          -0.3667   -1.9090   -1.4965 H       1  UNL1        0.0625
     30 H          -0.1044    2.1137   -0.0100 H       1  UNL1        0.0836
     31 H          -1.3387    0.7547   -3.2437 H       1  UNL1        0.0624
     32 H          -3.6569    1.1649   -3.9686 H       1  UNL1        0.0618
     33 H          -5.5093    1.0190   -2.3576 H       1  UNL1        0.0624
     34 H          -6.3356    0.6150   -0.0905 H       1  UNL1        0.0624
     35 H          -5.9327    0.0486    2.2687 H       1  UNL1        0.0618
     36 H          -3.6251   -0.3897    3.0665 H       1  UNL1        0.0618
     37 H          -1.7362   -0.2624    1.5205 H       1  UNL1        0.0624
@<TRIPOS>BOND
     1     1     2   ar
     2     2     3   ar
     3     3     4   ar
     4     4     5   ar
     5     5     6   ar
     6     4     7    1
     7     7     8   ar
     8     8     9   ar
     9     9    10   ar
    10    10    11   ar
    11    11    12   ar
    12    10    13    1
    13    13    14   ar
    14    14    15   ar
    15    15    16   ar
    16    16    17   ar
    17    17    18   ar
    18    18    19   ar
    19    19    20   ar
    20    20    21   ar
    21    21    22   ar
    22     6     1   ar
    23    12     7   ar
    24    22    13   ar
    25    22    17   ar
    26     1    23    1
    27     2    24    1
    28     3    25    1
    29     5    26    1
    30     6    27    1
    31     8    28    1
    32     9    29    1
    33    11    30    1
    34    14    31    1
    35    15    32    1
    36    16    33    1
    37    18    34    1
    38    19    35    1
    39    20    36    1
    40    21    37    1
