@<TRIPOS>MOLECULE
*****
 34 38 0 0 0
SMALL
GASTEIGER

@<TRIPOS>ATOM
      1 C           6.2546    0.4247   -0.3484 C.ar    1  UNL1       -0.0617
      2 C           5.4259    1.4282    0.1460 C.ar    1  UNL1       -0.0612
      3 C           4.0595    1.1878    0.3146 C.ar    1  UNL1       -0.0540
      4 C           3.4980   -0.0599   -0.0062 C.ar    1  UNL1       -0.0163
      5 C           4.3524   -1.0581   -0.5049 C.ar    1  UNL1       -0.0540
      6 C           5.7188   -0.8182   -0.6747 C.ar    1  UNL1       -0.0612
      7 C           2.0600   -0.3116    0.1734 C.ar    1  UNL1        0.0037
      8 C           1.5985   -1.4157    0.9087 C.ar    1  UNL1        0.0362
      9 N           0.3036   -1.7590    1.1425 N.ar    1  UNL1       -0.2505
     10 C          -0.5976   -0.9099    0.5875 C.ar    1  UNL1        0.1181
     11 C          -0.2278    0.2060   -0.1511 C.ar    1  UNL1        0.1551
     12 C           1.0990    0.5455   -0.3839 C.ar    1  UNL1       -0.0080
     13 O          -1.3284    0.8766   -0.5883 O.2     1  UNL1       -0.4524
     14 C          -2.4142    0.1860   -0.1261 C.ar    1  UNL1        0.1498
     15 C          -2.0125   -0.9252    0.6058 C.ar    1  UNL1        0.0649
     16 C          -3.0003   -1.7413    1.1506 C.ar    1  UNL1        0.0411
     17 N          -4.3171   -1.4451    0.9623 N.ar    1  UNL1       -0.2540
     18 C          -4.6862   -0.3616    0.2485 C.ar    1  UNL1        0.0774
     19 C          -6.0250   -0.0704    0.0638 C.ar    1  UNL1       -0.0175
     20 C          -6.3871    1.0487   -0.6735 C.ar    1  UNL1        0.0296
     21 N          -5.5048    1.8999   -1.2409 N.ar    1  UNL1       -0.2624
     22 C          -4.1984    1.6173   -1.0619 C.ar    1  UNL1        0.0403
     23 C          -3.7603    0.5117   -0.3338 C.ar    1  UNL1        0.0613
     24 H           7.3173    0.6116   -0.4805 H       1  UNL1        0.0618
     25 H           5.8418    2.3990    0.4033 H       1  UNL1        0.0618
     26 H           3.4352    1.9857    0.7125 H       1  UNL1        0.0624
     27 H           3.9577   -2.0342   -0.7811 H       1  UNL1        0.0624
     28 H           6.3630   -1.6019   -1.0654 H       1  UNL1        0.0618
     29 H           2.3134   -2.0971    1.3700 H       1  UNL1        0.0836
     30 H           1.3608    1.4156   -0.9738 H       1  UNL1        0.0661
     31 H          -2.7792   -2.6279    1.7351 H       1  UNL1        0.0837
     32 H          -6.7852   -0.7135    0.4931 H       1  UNL1        0.0654
     33 H          -7.4339    1.2955   -0.8305 H       1  UNL1        0.0830
     34 H          -3.5018    2.3105   -1.5241 H       1  UNL1        0.0837
@<TRIPOS>BOND
     1     1     2   ar
     2     2     3   ar
     3     3     4   ar
     4     4     5   ar
     5     5     6   ar
     6     4     7    1
     7     7     8   ar
     8     8     9   ar
     9     9    10   ar
    10    10    11   ar
    11    11    12   ar
    12    11    13   ar
    13    13    14   ar
    14    14    15   ar
    15    15    16   ar
    16    16    17   ar
    17    17    18   ar
    18    18    19   ar
    19    19    20   ar
    20    20    21   ar
    21    21    22   ar
    22    22    23   ar
    23     6     1   ar
    24    12     7   ar
    25    23    14   ar
    26    15    10   ar
    27    23    18   ar
    28     1    24    1
    29     2    25    1
    30     3    26    1
    31     5    27    1
    32     6    28    1
    33     8    29    1
    34    12    30    1
    35    16    31    1
    36    19    32    1
    37    20    33    1
    38    22    34    1
