@<TRIPOS>MOLECULE
*****
 46 52 0 0 0
SMALL
GASTEIGER

@<TRIPOS>ATOM
      1 SI         -4.9180   -1.3637   -1.5997 Si      1  UNL1        0.0000
      2 C          -5.2917   -0.1743   -0.2226 C.2     1  UNL1        0.0000
      3 C          -4.1561    0.3300    0.2993 C.ar    1  UNL1        0.0000
      4 C          -4.0717    1.3934    1.2583 C.ar    1  UNL1        0.0000
      5 C          -5.0428    2.1148    1.9839 C.ar    1  UNL1        0.0000
      6 C          -4.3621    3.0550    2.7353 C.ar    1  UNL1        0.0000
      7 N          -3.0144    2.9238    2.4810 N.ar    1  UNL1        0.0000
      8 C          -2.8337    1.9154    1.5809 C.ar    1  UNL1        0.0000
      9 C          -1.6292    1.3833    1.0361 C.ar    1  UNL1        0.0000
     10 N          -0.3593    1.8268    1.2035 N.ar    1  UNL1        0.0000
     11 C           0.5151    0.9768    0.5604 C.ar    1  UNL1        0.0000
     12 C           1.9031    1.0859    0.4467 C.ar    1  UNL1        0.0000
     13 C           2.6089    0.0641   -0.2039 C.ar    1  UNL1        0.0000
     14 C           4.0571    0.2447   -0.3210 C.2     1  UNL1        0.0000
     15 C           4.7170    0.8221   -1.3455 C.2     1  UNL1        0.0000
     16 C           6.1624    0.8799   -1.1916 C.2     1  UNL1        0.0000
     17 C           6.6399    0.3550   -0.0480 C.2     1  UNL1        0.0000
     18 SI          5.2482   -0.3174    1.0347 Si      1  UNL1        0.0000
     19 C           1.9373   -1.0841   -0.6873 C.ar    1  UNL1        0.0000
     20 C           2.6152   -2.1628   -1.3059 C.ar    1  UNL1        0.0000
     21 C           1.9536   -3.3299   -1.6896 C.ar    1  UNL1        0.0000
     22 C           0.5961   -3.4610   -1.4460 C.ar    1  UNL1        0.0000
     23 C          -0.1065   -2.4071   -0.8625 C.ar    1  UNL1        0.0000
     24 C           0.5248   -1.1891   -0.5264 C.ar    1  UNL1        0.0000
     25 C          -0.2226   -0.0903    0.0225 C.ar    1  UNL1        0.0000
     26 C          -1.6047    0.2832    0.1883 C.ar    1  UNL1        0.0000
     27 C          -2.8771   -0.2186   -0.2970 C.ar    1  UNL1        0.0000
     28 C          -3.0999   -1.0315   -1.3498 C.2     1  UNL1        0.0000
     29 H          -5.2856   -2.7605   -1.2631 H       1  UNL1        0.0000
     30 H          -5.4070   -0.8852   -2.9151 H       1  UNL1        0.0000
     31 H          -6.3015    0.1075    0.0275 H       1  UNL1        0.0000
     32 H          -6.1153    1.9761    1.9666 H       1  UNL1        0.0000
     33 H          -4.7192    3.8051    3.4279 H       1  UNL1        0.0000
     34 H          -2.2861    3.4785    2.9072 H       1  UNL1        0.0000
     35 H          -0.0815    2.6496    1.7165 H       1  UNL1        0.0000
     36 H           2.4232    1.9509    0.8498 H       1  UNL1        0.0000
     37 H           4.2346    1.2219   -2.2296 H       1  UNL1        0.0000
     38 H           6.7855    1.3207   -1.9601 H       1  UNL1        0.0000
     39 H           7.6712    0.2965    0.2614 H       1  UNL1        0.0000
     40 H           5.1079    0.4640    2.2900 H       1  UNL1        0.0000
     41 H           5.3336   -1.7930    1.1703 H       1  UNL1        0.0000
     42 H           3.6871   -2.1112   -1.4853 H       1  UNL1        0.0000
     43 H           2.5086   -4.1424   -2.1504 H       1  UNL1        0.0000
     44 H           0.0813   -4.3840   -1.6982 H       1  UNL1        0.0000
     45 H          -1.1506   -2.5708   -0.6217 H       1  UNL1        0.0000
     46 H          -2.3754   -1.4479   -2.0280 H       1  UNL1        0.0000
@<TRIPOS>BOND
     1     1     2    1
     2     2     3    2
     3     3     4   ar
     4     4     5   ar
     5     5     6   ar
     6     6     7   ar
     7     7     8   ar
     8     8     9   ar
     9     9    10   ar
    10    10    11   ar
    11    11    12   ar
    12    12    13   ar
    13    13    14    1
    14    14    15    2
    15    15    16    1
    16    16    17    2
    17    17    18    1
    18    13    19   ar
    19    19    20   ar
    20    20    21   ar
    21    21    22   ar
    22    22    23   ar
    23    23    24   ar
    24    24    25   ar
    25    25    26   ar
    26    26    27   ar
    27    27    28    2
    28    28     1    1
    29    27     3   ar
    30     8     4   ar
    31    26     9   ar
    32    25    11   ar
    33    18    14    1
    34    24    19   ar
    35     1    29    1
    36     1    30    1
    37     2    31    1
    38     5    32    1
    39     6    33    1
    40     7    34    1
    41    10    35    1
    42    12    36    1
    43    15    37    1
    44    16    38    1
    45    17    39    1
    46    18    40    1
    47    18    41    1
    48    20    42    1
    49    21    43    1
    50    22    44    1
    51    23    45    1
    52    28    46    1
