@<TRIPOS>MOLECULE
*****
 46 49 0 0 0
SMALL
GASTEIGER

@<TRIPOS>ATOM
      1 C           5.9441    0.5493   -0.5003 C.ar    1  UNL1       -0.0617
      2 C           5.7617   -0.8031   -0.7819 C.ar    1  UNL1       -0.0615
      3 C           4.5137   -1.3960   -0.5874 C.ar    1  UNL1       -0.0585
      4 C           3.4373   -0.6396   -0.1049 C.ar    1  UNL1       -0.0456
      5 C           2.0827   -1.2738    0.0780 C.3     1  UNL1       -0.0079
      6 C           1.2573   -1.1945   -1.2025 C.3     1  UNL1        0.0492
      7 N          -0.0717   -1.7269   -1.0147 N.ar    1  UNL1       -0.2271
      8 N          -0.2961   -3.0363   -1.2101 N.ar    1  UNL1       -0.0438
      9 N          -1.5880   -3.2067   -0.9817 N.ar    1  UNL1       -0.0230
     10 N          -2.1829   -2.0239   -0.6294 N.ar    1  UNL1       -0.1114
     11 C          -1.2332   -1.1041   -0.6340 C.ar    1  UNL1        0.1734
     12 C          -1.3511    0.3598   -0.2917 C.3     1  UNL1        0.1038
     13 C          -1.9731    1.1997   -1.4123 C.ar    1  UNL1        0.0144
     14 C          -2.8565    2.2655   -1.3202 C.ar    1  UNL1       -0.0496
     15 C          -3.1944    2.8243   -2.5859 C.ar    1  UNL1       -0.0544
     16 C          -2.5406    2.1924   -3.6166 C.ar    1  UNL1       -0.0240
     17 S          -1.5169    0.9472   -3.0578 S.2     1  UNL1       -0.0996
     18 N          -1.9913    0.6224    1.0211 N.3     1  UNL1       -0.2843
     19 C          -3.3719    0.1117    1.1747 C.3     1  UNL1        0.0234
     20 C          -3.5101   -1.0050    2.2247 C.3     1  UNL1        0.0605
     21 O          -3.0462   -0.6103    3.5238 O.3     1  UNL1       -0.3772
     22 C          -1.9460    0.3058    3.4796 C.3     1  UNL1        0.0605
     23 C          -1.1504    0.2368    2.1672 C.3     1  UNL1        0.0234
     24 C           3.6292    0.7209    0.1720 C.ar    1  UNL1       -0.0585
     25 C           4.8787    1.3109   -0.0238 C.ar    1  UNL1       -0.0615
     26 H           6.9172    1.0095   -0.6514 H       1  UNL1        0.0618
     27 H           6.5933   -1.3970   -1.1532 H       1  UNL1        0.0618
     28 H           4.3899   -2.4534   -0.8134 H       1  UNL1        0.0620
     29 H           1.5602   -0.7783    0.9059 H       1  UNL1        0.0331
     30 H           2.2036   -2.3186    0.3927 H       1  UNL1        0.0331
     31 H           1.7309   -1.7646   -2.0114 H       1  UNL1        0.0513
     32 H           1.1666   -0.1636   -1.5597 H       1  UNL1        0.0513
     33 H          -0.3368    0.7736   -0.1996 H       1  UNL1        0.0600
     34 H          -3.2509    2.6294   -0.3785 H       1  UNL1        0.0626
     35 H          -3.8793    3.6509   -2.7304 H       1  UNL1        0.0623
     36 H          -2.6079    2.4088   -4.6741 H       1  UNL1        0.0693
     37 H          -3.9753    0.9622    1.5173 H       1  UNL1        0.0449
     38 H          -3.8175   -0.2086    0.2268 H       1  UNL1        0.0449
     39 H          -4.5617   -1.2912    2.3284 H       1  UNL1        0.0572
     40 H          -2.9591   -1.9036    1.9277 H       1  UNL1        0.0572
     41 H          -1.2929    0.0745    4.3273 H       1  UNL1        0.0572
     42 H          -2.3400    1.3162    3.6407 H       1  UNL1        0.0572
     43 H          -0.7683   -0.7843    2.0475 H       1  UNL1        0.0449
     44 H          -0.2907    0.9130    2.2312 H       1  UNL1        0.0449
     45 H           2.8112    1.3330    0.5446 H       1  UNL1        0.0620
     46 H           5.0230    2.3658    0.1960 H       1  UNL1        0.0618
@<TRIPOS>BOND
     1     1     2   ar
     2     2     3   ar
     3     3     4   ar
     4     4     5    1
     5     5     6    1
     6     6     7    1
     7     7     8   ar
     8     8     9   ar
     9     9    10   ar
    10    10    11   ar
    11    11    12    1
    12    12    13    1
    13    13    14   ar
    14    14    15   ar
    15    15    16   ar
    16    16    17   ar
    17    12    18    1
    18    18    19    1
    19    19    20    1
    20    20    21    1
    21    21    22    1
    22    22    23    1
    23     4    24   ar
    24    24    25   ar
    25    25     1   ar
    26    11     7   ar
    27    17    13   ar
    28    23    18    1
    29     1    26    1
    30     2    27    1
    31     3    28    1
    32     5    29    1
    33     5    30    1
    34     6    31    1
    35     6    32    1
    36    12    33    1
    37    14    34    1
    38    15    35    1
    39    16    36    1
    40    19    37    1
    41    19    38    1
    42    20    39    1
    43    20    40    1
    44    22    41    1
    45    22    42    1
    46    23    43    1
    47    23    44    1
    48    24    45    1
    49    25    46    1
