@<TRIPOS>MOLECULE
*****
 74 82 0 0 0
SMALL
GASTEIGER

@<TRIPOS>ATOM
      1 C          -5.3022    1.4197    4.8327 C.ar    1  UNL1       -0.0616
      2 C          -4.6657    0.2859    4.3333 C.ar    1  UNL1       -0.0600
      3 C          -4.5777    0.0827    2.9536 C.ar    1  UNL1       -0.0400
      4 C          -5.1249    1.0100    2.0486 C.ar    1  UNL1        0.0388
      5 N          -5.0225    0.8049    0.6224 N.pl3   1  UNL1       -0.2692
      6 C          -6.1364    1.1283   -0.2390 C.ar    1  UNL1        0.0388
      7 C          -5.9325    1.7380   -1.4901 C.ar    1  UNL1       -0.0400
      8 C          -7.0107    2.0528   -2.3221 C.ar    1  UNL1       -0.0600
      9 C          -8.3124    1.7646   -1.9177 C.ar    1  UNL1       -0.0616
     10 C          -8.5371    1.1612   -0.6829 C.ar    1  UNL1       -0.0600
     11 C          -7.4589    0.8452    0.1491 C.ar    1  UNL1       -0.0400
     12 C          -3.7928    0.2999    0.0556 C.ar    1  UNL1        0.0395
     13 C          -2.5506    0.7469    0.5204 C.ar    1  UNL1       -0.0380
     14 C          -1.3468    0.2730   -0.0156 C.ar    1  UNL1       -0.0355
     15 C          -1.3907   -0.6937   -1.0389 C.ar    1  UNL1        0.0550
     16 C          -2.6123   -1.1300   -1.5547 C.ar    1  UNL1        0.0097
     17 C          -3.8132   -0.6410   -0.9907 C.ar    1  UNL1       -0.0302
     18 C          -2.3379   -2.0326   -2.6218 C.ar    1  UNL1        0.0080
     19 C          -3.1652   -2.7671   -3.4996 C.ar    1  UNL1       -0.0520
     20 C          -2.5953   -3.6252   -4.4433 C.ar    1  UNL1       -0.0611
     21 C          -1.2166   -3.7713   -4.5122 C.ar    1  UNL1       -0.0598
     22 C          -0.3760   -3.0518   -3.6588 C.ar    1  UNL1       -0.0372
     23 C          -0.9508   -2.1535   -2.7333 C.ar    1  UNL1        0.0549
     24 N          -0.3777   -1.3216   -1.7683 N.ar    1  UNL1       -0.3087
     25 C           1.0221   -1.1308   -1.5698 C.ar    1  UNL1        0.0472
     26 C           1.5535   -1.1010   -0.2801 C.ar    1  UNL1       -0.0372
     27 C           2.9248   -0.8897   -0.0951 C.ar    1  UNL1       -0.0506
     28 C           3.8052   -0.7032   -1.1794 C.ar    1  UNL1        0.0005
     29 C           5.2493   -0.4654   -0.9417 C.ar    1  UNL1        0.0718
     30 C           6.2347   -0.6752   -1.8961 C.ar    1  UNL1       -0.0351
     31 C           7.5602   -0.4085   -1.5677 C.ar    1  UNL1       -0.0505
     32 C           7.8873    0.0564   -0.2902 C.ar    1  UNL1        0.0025
     33 C           9.2179    0.3278    0.0418 C.ar    1  UNL1       -0.0519
     34 C           9.5354    0.7843    1.3126 C.ar    1  UNL1       -0.0519
     35 C           8.5249    0.9670    2.2616 C.ar    1  UNL1        0.0025
     36 C           8.8428    1.4217    3.5490 C.ar    1  UNL1       -0.0511
     37 C           7.8402    1.5996    4.4918 C.ar    1  UNL1       -0.0430
     38 C           6.5467    1.3165    4.1126 C.ar    1  UNL1        0.0284
     39 N           6.2068    0.8780    2.8829 N.ar    1  UNL1       -0.2528
     40 C           7.1713    0.6966    1.9432 C.ar    1  UNL1        0.0968
     41 C           6.8513    0.2412    0.6511 C.ar    1  UNL1        0.0975
     42 N           5.5674   -0.0229    0.3005 N.ar    1  UNL1       -0.2445
     43 C           3.2410   -0.7359   -2.4676 C.ar    1  UNL1       -0.0506
     44 C           1.8698   -0.9514   -2.6664 C.ar    1  UNL1       -0.0372
     45 C          -5.7647    2.1469    2.5741 C.ar    1  UNL1       -0.0400
     46 C          -5.8530    2.3491    3.9544 C.ar    1  UNL1       -0.0600
     47 H          -5.3691    1.5777    5.9054 H       1  UNL1        0.0618
     48 H          -4.2379   -0.4419    5.0159 H       1  UNL1        0.0618
     49 H          -4.0875   -0.8153    2.5855 H       1  UNL1        0.0636
     50 H          -4.9267    1.9924   -1.8167 H       1  UNL1        0.0636
     51 H          -6.8322    2.5269   -3.2838 H       1  UNL1        0.0618
     52 H          -9.1499    2.0097   -2.5664 H       1  UNL1        0.0618
     53 H          -9.5511    0.9321   -0.3647 H       1  UNL1        0.0618
     54 H          -7.6562    0.3595    1.1011 H       1  UNL1        0.0636
     55 H          -2.5031    1.5043    1.3008 H       1  UNL1        0.0637
     56 H          -0.4078    0.6777    0.3494 H       1  UNL1        0.0639
     57 H          -4.7619   -1.0078   -1.3731 H       1  UNL1        0.0643
     58 H          -4.2458   -2.6746   -3.4361 H       1  UNL1        0.0624
     59 H          -3.2365   -4.1893   -5.1155 H       1  UNL1        0.0618
     60 H          -0.7831   -4.4618   -5.2333 H       1  UNL1        0.0618
     61 H           0.6974   -3.2060   -3.7107 H       1  UNL1        0.0638
     62 H           0.9324   -1.2706    0.5959 H       1  UNL1        0.0638
     63 H           3.3146   -0.8726    0.9241 H       1  UNL1        0.0625
     64 H           6.0008   -1.0533   -2.8846 H       1  UNL1        0.0639
     65 H           8.3321   -0.5702   -2.3165 H       1  UNL1        0.0625
     66 H          10.0144    0.1859   -0.6856 H       1  UNL1        0.0624
     67 H          10.5747    0.9918    1.5579 H       1  UNL1        0.0624
     68 H           9.8723    1.6387    3.8239 H       1  UNL1        0.0625
     69 H           8.0622    1.9513    5.4925 H       1  UNL1        0.0633
     70 H           5.7172    1.4351    4.8043 H       1  UNL1        0.0830
     71 H           3.8544   -0.5598   -3.3476 H       1  UNL1        0.0625
     72 H           1.4802   -0.9192   -3.6817 H       1  UNL1        0.0638
     73 H          -6.1823    2.8964    1.9068 H       1  UNL1        0.0636
     74 H          -6.3492    3.2366    4.3382 H       1  UNL1        0.0618
@<TRIPOS>BOND
     1     1     2   ar
     2     2     3   ar
     3     3     4   ar
     4     4     5    1
     5     5     6    1
     6     6     7   ar
     7     7     8   ar
     8     8     9   ar
     9     9    10   ar
    10    10    11   ar
    11     5    12    1
    12    12    13   ar
    13    13    14   ar
    14    14    15   ar
    15    15    16   ar
    16    16    17   ar
    17    16    18   ar
    18    18    19   ar
    19    19    20   ar
    20    20    21   ar
    21    21    22   ar
    22    22    23   ar
    23    23    24   ar
    24    24    25    1
    25    25    26   ar
    26    26    27   ar
    27    27    28   ar
    28    28    29    1
    29    29    30   ar
    30    30    31   ar
    31    31    32   ar
    32    32    33   ar
    33    33    34   ar
    34    34    35   ar
    35    35    36   ar
    36    36    37   ar
    37    37    38   ar
    38    38    39   ar
    39    39    40   ar
    40    40    41   ar
    41    41    42   ar
    42    28    43   ar
    43    43    44   ar
    44     4    45   ar
    45    45    46   ar
    46    46     1   ar
    47    11     6   ar
    48    17    12   ar
    49    23    18   ar
    50    44    25   ar
    51    24    15   ar
    52    42    29   ar
    53    41    32   ar
    54    40    35   ar
    55     1    47    1
    56     2    48    1
    57     3    49    1
    58     7    50    1
    59     8    51    1
    60     9    52    1
    61    10    53    1
    62    11    54    1
    63    13    55    1
    64    14    56    1
    65    17    57    1
    66    19    58    1
    67    20    59    1
    68    21    60    1
    69    22    61    1
    70    26    62    1
    71    27    63    1
    72    30    64    1
    73    31    65    1
    74    33    66    1
    75    34    67    1
    76    36    68    1
    77    37    69    1
    78    38    70    1
    79    43    71    1
    80    44    72    1
    81    45    73    1
    82    46    74    1
