@<TRIPOS>MOLECULE
*****
 34 36 0 0 0
SMALL
GASTEIGER

@<TRIPOS>ATOM
      1 C           4.0755   -1.2356   -0.1821 C.ar    1  UNL1       -0.0616
      2 C           3.6784   -0.2895    0.7597 C.ar    1  UNL1       -0.0600
      3 C           2.3426    0.1159    0.8242 C.ar    1  UNL1       -0.0400
      4 C           1.3805   -0.4185   -0.0513 C.ar    1  UNL1        0.0388
      5 N          -0.0000    0.0000    0.0157 N.pl3   1  UNL1       -0.2692
      6 C          -1.0573   -0.9716   -0.1377 C.ar    1  UNL1        0.0388
      7 C          -0.9619   -2.2449    0.4516 C.ar    1  UNL1       -0.0400
      8 C          -1.9853   -3.1849    0.3035 C.ar    1  UNL1       -0.0600
      9 C          -3.1215   -2.8683   -0.4372 C.ar    1  UNL1       -0.0616
     10 C          -3.2362   -1.6131   -1.0297 C.ar    1  UNL1       -0.0600
     11 C          -2.2132   -0.6728   -0.8809 C.ar    1  UNL1       -0.0400
     12 C          -0.3232    1.3901    0.2362 C.ar    1  UNL1        0.0388
     13 C          -1.3795    1.7619    1.0869 C.ar    1  UNL1       -0.0400
     14 C          -1.6919    3.1072    1.3007 C.ar    1  UNL1       -0.0600
     15 C          -0.9540    4.1039    0.6668 C.ar    1  UNL1       -0.0616
     16 C           0.0960    3.7577   -0.1802 C.ar    1  UNL1       -0.0600
     17 C           0.4090    2.4125   -0.3932 C.ar    1  UNL1       -0.0400
     18 C           1.8030   -1.3727   -0.9940 C.ar    1  UNL1       -0.0400
     19 C           3.1390   -1.7774   -1.0591 C.ar    1  UNL1       -0.0600
     20 H           5.1145   -1.5506   -0.2325 H       1  UNL1        0.0618
     21 H           4.4055    0.1326    1.4484 H       1  UNL1        0.0618
     22 H           2.0505    0.8427    1.5786 H       1  UNL1        0.0636
     23 H          -0.0914   -2.5065    1.0486 H       1  UNL1        0.0636
     24 H          -1.8939   -4.1619    0.7707 H       1  UNL1        0.0618
     25 H          -3.9172   -3.5996   -0.5526 H       1  UNL1        0.0618
     26 H          -4.1194   -1.3638   -1.6118 H       1  UNL1        0.0618
     27 H          -2.3153    0.2950   -1.3665 H       1  UNL1        0.0636
     28 H          -1.9571    1.0002    1.6055 H       1  UNL1        0.0636
     29 H          -2.5094    3.3735    1.9654 H       1  UNL1        0.0618
     30 H          -1.1972    5.1501    0.8327 H       1  UNL1        0.0618
     31 H           0.6715    4.5325   -0.6798 H       1  UNL1        0.0618
     32 H           1.2214    2.1639   -1.0721 H       1  UNL1        0.0636
     33 H           1.0917   -1.7953   -1.6998 H       1  UNL1        0.0636
     34 H           3.4459   -2.5129   -1.7980 H       1  UNL1        0.0618
@<TRIPOS>BOND
     1     1     2   ar
     2     2     3   ar
     3     3     4   ar
     4     4     5    1
     5     5     6    1
     6     6     7   ar
     7     7     8   ar
     8     8     9   ar
     9     9    10   ar
    10    10    11   ar
    11     5    12    1
    12    12    13   ar
    13    13    14   ar
    14    14    15   ar
    15    15    16   ar
    16    16    17   ar
    17     4    18   ar
    18    18    19   ar
    19    19     1   ar
    20    11     6   ar
    21    17    12   ar
    22     1    20    1
    23     2    21    1
    24     3    22    1
    25     7    23    1
    26     8    24    1
    27     9    25    1
    28    10    26    1
    29    11    27    1
    30    13    28    1
    31    14    29    1
    32    15    30    1
    33    16    31    1
    34    17    32    1
    35    18    33    1
    36    19    34    1
