@<TRIPOS>MOLECULE
*****
 32 35 0 0 0
SMALL
GASTEIGER

@<TRIPOS>ATOM
      1 C           4.3555   -0.4283    0.5146 C.ar    1  UNL1       -0.0616
      2 C           3.6481   -1.3143   -0.2968 C.ar    1  UNL1       -0.0598
      3 C           2.2653   -1.1824   -0.4398 C.ar    1  UNL1       -0.0378
      4 C           1.5870   -0.1561    0.2299 C.ar    1  UNL1        0.0472
      5 N           0.1738   -0.0171    0.0846 N.ar    1  UNL1       -0.3087
      6 C          -0.7492   -1.0658    0.1212 C.ar    1  UNL1        0.0549
      7 C          -0.5913   -2.4469    0.3652 C.ar    1  UNL1       -0.0372
      8 C          -1.7221   -3.2689    0.3581 C.ar    1  UNL1       -0.0598
      9 C          -2.9854   -2.7385    0.1353 C.ar    1  UNL1       -0.0611
     10 C          -3.1463   -1.3662   -0.0687 C.ar    1  UNL1       -0.0520
     11 C          -2.0193   -0.5140   -0.0631 C.ar    1  UNL1        0.0079
     12 C          -1.8662    0.8961   -0.2032 C.ar    1  UNL1        0.0079
     13 C          -2.7853    1.9495   -0.4081 C.ar    1  UNL1       -0.0520
     14 C          -2.3251    3.2608   -0.5482 C.ar    1  UNL1       -0.0611
     15 C          -0.9648    3.5331   -0.5011 C.ar    1  UNL1       -0.0598
     16 C          -0.0360    2.5086   -0.2963 C.ar    1  UNL1       -0.0372
     17 C          -0.5030    1.1889   -0.1166 C.ar    1  UNL1        0.0549
     18 C           2.3012    0.7333    1.0428 C.ar    1  UNL1       -0.0378
     19 C           3.6834    0.5933    1.1842 C.ar    1  UNL1       -0.0598
     20 H           5.4317   -0.5342    0.6253 H       1  UNL1        0.0618
     21 H           4.1751   -2.1043   -0.8261 H       1  UNL1        0.0618
     22 H           1.7427   -1.8608   -1.1098 H       1  UNL1        0.0638
     23 H           0.3815   -2.8802    0.5759 H       1  UNL1        0.0638
     24 H          -1.6093   -4.3354    0.5390 H       1  UNL1        0.0618
     25 H          -3.8559   -3.3893    0.1347 H       1  UNL1        0.0618
     26 H          -4.1403   -0.9553   -0.2214 H       1  UNL1        0.0624
     27 H          -3.8498    1.7411   -0.4673 H       1  UNL1        0.0624
     28 H          -3.0358    4.0671   -0.7103 H       1  UNL1        0.0618
     29 H          -0.6144    4.5541   -0.6343 H       1  UNL1        0.0618
     30 H           1.0243    2.7420   -0.2977 H       1  UNL1        0.0638
     31 H           1.7951    1.5129    1.6071 H       1  UNL1        0.0638
     32 H           4.2350    1.2771    1.8244 H       1  UNL1        0.0618
@<TRIPOS>BOND
     1     1     2   ar
     2     2     3   ar
     3     3     4   ar
     4     4     5    1
     5     5     6   ar
     6     6     7   ar
     7     7     8   ar
     8     8     9   ar
     9     9    10   ar
    10    10    11   ar
    11    11    12   ar
    12    12    13   ar
    13    13    14   ar
    14    14    15   ar
    15    15    16   ar
    16    16    17   ar
    17     4    18   ar
    18    18    19   ar
    19    19     1   ar
    20    17     5   ar
    21    11     6   ar
    22    17    12   ar
    23     1    20    1
    24     2    21    1
    25     3    22    1
    26     7    23    1
    27     8    24    1
    28     9    25    1
    29    10    26    1
    30    13    27    1
    31    14    28    1
    32    15    29    1
    33    16    30    1
    34    18    31    1
    35    19    32    1
