@<TRIPOS>MOLECULE
*****
 30 33 0 0 0
SMALL
GASTEIGER

@<TRIPOS>ATOM
      1 C          -4.3574   -0.9632   -1.1584 C.ar    1  UNL1       -0.0616
      2 C          -4.5724   -0.8830    0.2156 C.ar    1  UNL1       -0.0598
      3 C          -3.5655   -0.4021    1.0546 C.ar    1  UNL1       -0.0361
      4 C          -2.3257   -0.0167    0.5204 C.ar    1  UNL1        0.0708
      5 N          -1.3249    0.4794    1.3931 N.ar    1  UNL1       -0.1782
      6 N          -1.6754    1.0639    2.5677 N.ar    1  UNL1       -0.0374
      7 N          -0.6154    1.7496    2.9666 N.ar    1  UNL1       -0.0208
      8 N           0.4536    1.5177    2.1477 N.ar    1  UNL1       -0.0888
      9 C           0.0425    0.6384    1.2559 C.ar    1  UNL1        0.2604
     10 N           0.9126   -0.0673    0.4307 N.ar    1  UNL1       -0.2658
     11 C           0.6976   -1.2924   -0.1687 C.ar    1  UNL1        0.1039
     12 N           1.7063   -1.6915   -0.9066 N.ar    1  UNL1       -0.2353
     13 C           2.6668   -0.7340   -0.7348 C.ar    1  UNL1        0.0894
     14 C           3.9610   -0.6743   -1.2738 C.ar    1  UNL1       -0.0342
     15 C           4.7812    0.4111   -0.9481 C.ar    1  UNL1       -0.0596
     16 C           4.3213    1.4202   -0.1032 C.ar    1  UNL1       -0.0597
     17 C           3.0322    1.3795    0.4404 C.ar    1  UNL1       -0.0356
     18 C           2.2207    0.2819    0.1085 C.ar    1  UNL1        0.0762
     19 C          -2.1280   -0.0668   -0.8663 C.ar    1  UNL1       -0.0361
     20 C          -3.1414   -0.5494   -1.6988 C.ar    1  UNL1       -0.0598
     21 H          -5.1444   -1.3344   -1.8108 H       1  UNL1        0.0618
     22 H          -5.5276   -1.1912    0.6348 H       1  UNL1        0.0618
     23 H          -3.7634   -0.3481    2.1245 H       1  UNL1        0.0639
     24 H          -0.2061   -1.8687   -0.0201 H       1  UNL1        0.1033
     25 H           4.3133   -1.4644   -1.9282 H       1  UNL1        0.0639
     26 H           5.7871    0.4651   -1.3578 H       1  UNL1        0.0618
     27 H           4.9749    2.2563    0.1388 H       1  UNL1        0.0618
     28 H           2.6852    2.1750    1.0936 H       1  UNL1        0.0639
     29 H          -1.2212    0.2987   -1.3419 H       1  UNL1        0.0639
     30 H          -2.9876   -0.5892   -2.7753 H       1  UNL1        0.0618
@<TRIPOS>BOND
     1     1     2   ar
     2     2     3   ar
     3     3     4   ar
     4     4     5    1
     5     5     6   ar
     6     6     7   ar
     7     7     8   ar
     8     8     9   ar
     9     9    10    1
    10    10    11   ar
    11    11    12   ar
    12    12    13   ar
    13    13    14   ar
    14    14    15   ar
    15    15    16   ar
    16    16    17   ar
    17    17    18   ar
    18     4    19   ar
    19    19    20   ar
    20    20     1   ar
    21     9     5   ar
    22    18    10   ar
    23    18    13   ar
    24     1    21    1
    25     2    22    1
    26     3    23    1
    27    11    24    1
    28    14    25    1
    29    15    26    1
    30    16    27    1
    31    17    28    1
    32    19    29    1
    33    20    30    1
