@<TRIPOS>MOLECULE
*****
 43 48 0 0 0
SMALL
GASTEIGER

@<TRIPOS>ATOM
      1 C           6.4119   -1.0386   -1.7718 C.ar    1  UNL1       -0.0436
      2 C           5.7934    0.1399   -2.1691 C.ar    1  UNL1       -0.0583
      3 C           4.4858    0.3923   -1.7630 C.ar    1  UNL1       -0.0357
      4 C           3.8335   -0.5432   -0.9593 C.ar    1  UNL1        0.0716
      5 N           4.4213   -1.7056   -0.5800 N.ar    1  UNL1       -0.2550
      6 C           5.6913   -1.9221   -0.9863 C.ar    1  UNL1        0.0283
      7 C           2.4416   -0.3514   -0.5141 C.ar    1  UNL1        0.0100
      8 C           1.4760   -1.2298   -1.0355 C.ar    1  UNL1       -0.0280
      9 C           0.1341   -1.0526   -0.6956 C.ar    1  UNL1        0.0487
     10 N          -0.9520   -1.7882   -1.0967 N.ar    1  UNL1       -0.3541
     11 C          -2.1104   -1.2896   -0.5635 C.ar    1  UNL1        0.0481
     12 C          -3.4282   -1.7388   -0.7283 C.ar    1  UNL1       -0.0300
     13 C          -4.4594   -1.0532   -0.0695 C.ar    1  UNL1       -0.0159
     14 C          -5.7961   -1.4635   -0.2027 C.ar    1  UNL1       -0.0540
     15 C          -6.8233   -0.7823    0.4517 C.ar    1  UNL1       -0.0612
     16 C          -6.5267    0.3181    1.2480 C.ar    1  UNL1       -0.0612
     17 C          -5.2029    0.7368    1.3896 C.ar    1  UNL1       -0.0540
     18 C          -4.1574    0.0616    0.7374 C.ar    1  UNL1       -0.0172
     19 C          -2.8187    0.4827    0.8794 C.ar    1  UNL1       -0.0443
     20 C          -1.7613   -0.1936    0.2247 C.ar    1  UNL1        0.0086
     21 C          -0.3186   -0.0402    0.1510 C.ar    1  UNL1        0.0151
     22 C           0.6678    0.8438    0.7130 C.ar    1  UNL1       -0.0075
     23 C           0.2971    1.8813    1.5997 C.ar    1  UNL1       -0.0534
     24 C           1.2447    2.7321    2.1686 C.ar    1  UNL1       -0.0611
     25 C           2.5867    2.5626    1.8728 C.ar    1  UNL1       -0.0611
     26 C           2.9802    1.5483    0.9991 C.ar    1  UNL1       -0.0534
     27 C           2.0483    0.6748    0.3852 C.ar    1  UNL1       -0.0080
     28 H           7.4292   -1.2661   -2.0694 H       1  UNL1        0.0633
     29 H           6.3215    0.8561   -2.7919 H       1  UNL1        0.0619
     30 H           3.9813    1.3030   -2.0707 H       1  UNL1        0.0639
     31 H           6.1286   -2.8586   -0.6522 H       1  UNL1        0.0830
     32 H           1.7780   -2.0334   -1.7037 H       1  UNL1        0.0645
     33 H          -0.9022   -2.5895   -1.7083 H       1  UNL1        0.1659
     34 H          -3.6419   -2.6004   -1.3539 H       1  UNL1        0.0644
     35 H          -6.0481   -2.3221   -0.8210 H       1  UNL1        0.0624
     36 H          -7.8525   -1.1123    0.3388 H       1  UNL1        0.0618
     37 H          -7.3231    0.8517    1.7599 H       1  UNL1        0.0618
     38 H          -4.9913    1.5996    2.0174 H       1  UNL1        0.0624
     39 H          -2.6129    1.3436    1.5035 H       1  UNL1        0.0630
     40 H          -0.7361    2.0436    1.8736 H       1  UNL1        0.0624
     41 H           0.9303    3.5172    2.8509 H       1  UNL1        0.0618
     42 H           3.3330    3.2102    2.3250 H       1  UNL1        0.0618
     43 H           4.0473    1.4367    0.8174 H       1  UNL1        0.0624
@<TRIPOS>BOND
     1     1     2   ar
     2     2     3   ar
     3     3     4   ar
     4     4     5   ar
     5     5     6   ar
     6     4     7    1
     7     7     8   ar
     8     8     9   ar
     9     9    10   ar
    10    10    11   ar
    11    11    12   ar
    12    12    13   ar
    13    13    14   ar
    14    14    15   ar
    15    15    16   ar
    16    16    17   ar
    17    17    18   ar
    18    18    19   ar
    19    19    20   ar
    20    20    21   ar
    21    21    22   ar
    22    22    23   ar
    23    23    24   ar
    24    24    25   ar
    25    25    26   ar
    26    26    27   ar
    27     6     1   ar
    28    27     7   ar
    29    21     9   ar
    30    27    22   ar
    31    20    11   ar
    32    18    13   ar
    33     1    28    1
    34     2    29    1
    35     3    30    1
    36     6    31    1
    37     8    32    1
    38    10    33    1
    39    12    34    1
    40    14    35    1
    41    15    36    1
    42    16    37    1
    43    17    38    1
    44    19    39    1
    45    23    40    1
    46    24    41    1
    47    25    42    1
    48    26    43    1
