@<TRIPOS>MOLECULE
*****
 44 49 0 0 0
SMALL
GASTEIGER

@<TRIPOS>ATOM
      1 C           7.2150    0.4989    0.4924 C.ar    1  UNL1       -0.0436
      2 C           6.6010    1.2049    1.5161 C.ar    1  UNL1       -0.0583
      3 C           5.2090    1.2802    1.5513 C.ar    1  UNL1       -0.0342
      4 C           4.4555    0.6430    0.5601 C.ar    1  UNL1        0.0891
      5 N           5.0575   -0.0451   -0.4518 N.ar    1  UNL1       -0.2534
      6 C           6.4077   -0.0943   -0.4654 C.ar    1  UNL1        0.0283
      7 C           2.9734    0.6668    0.5533 C.ar    1  UNL1        0.0897
      8 C           2.2185   -0.1823   -0.2550 C.ar    1  UNL1       -0.0259
      9 C           0.7967   -0.1626   -0.2688 C.ar    1  UNL1       -0.0061
     10 C           0.0091   -1.0131   -1.1026 C.ar    1  UNL1       -0.0094
     11 C           0.6006   -1.9330   -2.0169 C.ar    1  UNL1       -0.0534
     12 C          -0.1387   -2.6912   -2.9190 C.ar    1  UNL1       -0.0611
     13 C          -1.5039   -2.5344   -2.9570 C.ar    1  UNL1       -0.0611
     14 C          -2.1136   -1.6647   -2.0495 C.ar    1  UNL1       -0.0534
     15 C          -1.4112   -0.9327   -1.0544 C.ar    1  UNL1       -0.0090
     16 C          -2.0808   -0.0704   -0.1006 C.ar    1  UNL1       -0.0018
     17 C          -3.5159   -0.0813    0.2058 C.ar    1  UNL1       -0.0096
     18 C          -4.4000   -1.1682   -0.0419 C.ar    1  UNL1       -0.0534
     19 C          -5.7796   -1.1036    0.1868 C.ar    1  UNL1       -0.0611
     20 C          -6.3381    0.0519    0.7010 C.ar    1  UNL1       -0.0612
     21 C          -5.5037    1.1049    1.0561 C.ar    1  UNL1       -0.0540
     22 C          -4.1125    1.0279    0.8567 C.ar    1  UNL1       -0.0173
     23 C          -3.3082    2.0538    1.3420 C.ar    1  UNL1       -0.0534
     24 C          -1.9248    1.9470    1.2575 C.ar    1  UNL1       -0.0528
     25 C          -1.2749    0.8840    0.5797 C.ar    1  UNL1       -0.0075
     26 C           0.1561    0.7829    0.5547 C.ar    1  UNL1        0.0086
     27 C           1.0119    1.5784    1.3479 C.ar    1  UNL1        0.0366
     28 N           2.3671    1.5444    1.3760 N.ar    1  UNL1       -0.2528
     29 H           8.2947    0.4205    0.4328 H       1  UNL1        0.0633
     30 H           7.1947    1.6923    2.2835 H       1  UNL1        0.0619
     31 H           4.7185    1.8280    2.3502 H       1  UNL1        0.0639
     32 H           6.8374   -0.6514   -1.2958 H       1  UNL1        0.0830
     33 H           2.7722   -0.8649   -0.8841 H       1  UNL1        0.0646
     34 H           1.6779   -2.0658   -2.0695 H       1  UNL1        0.0624
     35 H           0.3619   -3.3634   -3.6102 H       1  UNL1        0.0618
     36 H          -2.1007   -3.0662   -3.6921 H       1  UNL1        0.0618
     37 H          -3.1810   -1.5191   -2.1926 H       1  UNL1        0.0624
     38 H          -4.0089   -2.1292   -0.3692 H       1  UNL1        0.0624
     39 H          -6.4039   -1.9603   -0.0313 H       1  UNL1        0.0618
     40 H          -7.4092    0.1198    0.8710 H       1  UNL1        0.0618
     41 H          -5.9464    1.9898    1.5112 H       1  UNL1        0.0624
     42 H          -3.7371    2.9206    1.8383 H       1  UNL1        0.0624
     43 H          -1.3626    2.7617    1.7057 H       1  UNL1        0.0624
     44 H           0.6189    2.2960    2.0578 H       1  UNL1        0.0836
@<TRIPOS>BOND
     1     1     2   ar
     2     2     3   ar
     3     3     4   ar
     4     4     5   ar
     5     5     6   ar
     6     4     7    1
     7     7     8   ar
     8     8     9   ar
     9     9    10   ar
    10    10    11   ar
    11    11    12   ar
    12    12    13   ar
    13    13    14   ar
    14    14    15   ar
    15    15    16   ar
    16    16    17   ar
    17    17    18   ar
    18    18    19   ar
    19    19    20   ar
    20    20    21   ar
    21    21    22   ar
    22    22    23   ar
    23    23    24   ar
    24    24    25   ar
    25    25    26   ar
    26    26    27   ar
    27    27    28   ar
    28     6     1   ar
    29    28     7   ar
    30    26     9   ar
    31    15    10   ar
    32    25    16   ar
    33    22    17   ar
    34     1    29    1
    35     2    30    1
    36     3    31    1
    37     6    32    1
    38     8    33    1
    39    11    34    1
    40    12    35    1
    41    13    36    1
    42    14    37    1
    43    18    38    1
    44    19    39    1
    45    20    40    1
    46    21    41    1
    47    23    42    1
    48    24    43    1
    49    27    44    1
