@<TRIPOS>MOLECULE
*****
 42 48 0 0 0
SMALL
GASTEIGER

@<TRIPOS>ATOM
      1 C          -6.3353   -1.2147   -0.1958 C.ar    1  UNL1       -0.0436
      2 C          -5.6298   -1.4423    0.9793 C.ar    1  UNL1       -0.0583
      3 C          -4.2749   -1.1266    1.0319 C.ar    1  UNL1       -0.0357
      4 C          -3.6652   -0.5858   -0.0992 C.ar    1  UNL1        0.0716
      5 N          -4.3411   -0.3584   -1.2521 N.ar    1  UNL1       -0.2550
      6 C          -5.6536   -0.6774   -1.2744 C.ar    1  UNL1        0.0283
      7 C          -2.2333   -0.2429   -0.1148 C.ar    1  UNL1        0.0087
      8 C          -1.3229   -1.2941   -0.2403 C.ar    1  UNL1       -0.0421
      9 C           0.0610   -1.0696   -0.2546 C.ar    1  UNL1        0.0126
     10 C           0.9156   -2.2030   -0.3836 C.ar    1  UNL1        0.1083
     11 N           0.5310   -3.4968   -0.4832 N.ar    1  UNL1       -0.1901
     12 S           1.9151   -4.4169   -0.6147 S.2     1  UNL1        0.1165
     13 N           3.0651   -3.2169   -0.5409 N.ar    1  UNL1       -0.1901
     14 C           2.3519   -2.1072   -0.4202 C.ar    1  UNL1        0.1107
     15 C           2.9303   -0.7951   -0.3241 C.ar    1  UNL1        0.0439
     16 C           4.3335   -0.5584   -0.3536 C.ar    1  UNL1        0.0878
     17 N           5.3464   -1.4641   -0.4648 N.ar    1  UNL1       -0.2538
     18 C           6.5971   -0.9731   -0.4698 C.ar    1  UNL1        0.0283
     19 C           6.9250    0.3641   -0.3710 C.ar    1  UNL1       -0.0425
     20 C           5.8988    1.2930   -0.2569 C.ar    1  UNL1       -0.0445
     21 C           4.5824    0.8052   -0.2497 C.ar    1  UNL1        0.0388
     22 S           3.1345    1.6952   -0.1253 S.2     1  UNL1       -0.0860
     23 C           2.0835    0.3052   -0.1956 C.ar    1  UNL1        0.0325
     24 C           0.6119    0.2411   -0.1442 C.ar    1  UNL1        0.0064
     25 C          -0.3402    1.3503    0.0002 C.ar    1  UNL1       -0.0084
     26 C           0.0137    2.7206    0.1502 C.ar    1  UNL1       -0.0534
     27 C          -0.9132    3.7608    0.2791 C.ar    1  UNL1       -0.0611
     28 C          -2.2604    3.4800    0.2648 C.ar    1  UNL1       -0.0611
     29 C          -2.6675    2.1593    0.1291 C.ar    1  UNL1       -0.0534
     30 C          -1.7508    1.0842    0.0021 C.ar    1  UNL1       -0.0081
     31 H          -7.3906   -1.4520   -0.2710 H       1  UNL1        0.0633
     32 H          -6.1282   -1.8643    1.8473 H       1  UNL1        0.0619
     33 H          -3.7054   -1.2978    1.9398 H       1  UNL1        0.0639
     34 H          -6.1593   -0.4830   -2.2160 H       1  UNL1        0.0830
     35 H          -1.7111   -2.3088   -0.3422 H       1  UNL1        0.0631
     36 H           7.3771   -1.7254   -0.5607 H       1  UNL1        0.0830
     37 H           7.9626    0.6798   -0.3831 H       1  UNL1        0.0633
     38 H           6.1074    2.3549   -0.1774 H       1  UNL1        0.0630
     39 H           1.0434    3.0432    0.1780 H       1  UNL1        0.0624
     40 H          -0.5680    4.7859    0.3864 H       1  UNL1        0.0618
     41 H          -2.9949    4.2747    0.3552 H       1  UNL1        0.0618
     42 H          -3.7416    1.9771    0.1129 H       1  UNL1        0.0624
@<TRIPOS>BOND
     1     1     2   ar
     2     2     3   ar
     3     3     4   ar
     4     4     5   ar
     5     5     6   ar
     6     4     7    1
     7     7     8   ar
     8     8     9   ar
     9     9    10   ar
    10    10    11   ar
    11    11    12   ar
    12    12    13   ar
    13    13    14   ar
    14    14    15   ar
    15    15    16   ar
    16    16    17   ar
    17    17    18   ar
    18    18    19   ar
    19    19    20   ar
    20    20    21   ar
    21    21    22   ar
    22    22    23   ar
    23    23    24   ar
    24    24    25   ar
    25    25    26   ar
    26    26    27   ar
    27    27    28   ar
    28    28    29   ar
    29    29    30   ar
    30     6     1   ar
    31    30     7   ar
    32    24     9   ar
    33    30    25   ar
    34    14    10   ar
    35    23    15   ar
    36    21    16   ar
    37     1    31    1
    38     2    32    1
    39     3    33    1
    40     6    34    1
    41     8    35    1
    42    18    36    1
    43    19    37    1
    44    20    38    1
    45    26    39    1
    46    27    40    1
    47    28    41    1
    48    29    42    1
