@<TRIPOS>MOLECULE
*****
 34 39 0 0 0
SMALL
GASTEIGER

@<TRIPOS>ATOM
      1 C           6.5728   -0.0906   -0.7617 C.ar    1  UNL1       -0.0436
      2 C           6.2643    0.4054    0.4967 C.ar    1  UNL1       -0.0583
      3 C           4.9286    0.5013    0.8837 C.ar    1  UNL1       -0.0342
      4 C           3.9224    0.0981    0.0022 C.ar    1  UNL1        0.0892
      5 N           4.2249   -0.3892   -1.2339 N.ar    1  UNL1       -0.2534
      6 C           5.5281   -0.4714   -1.5835 C.ar    1  UNL1        0.0283
      7 C           2.4811    0.1753    0.3552 C.ar    1  UNL1        0.0926
      8 C           1.4913   -0.2326   -0.5397 C.ar    1  UNL1        0.0088
      9 C           0.1855   -0.1084   -0.0862 C.ar    1  UNL1        0.1413
     10 O          -0.9214   -0.4535   -0.8131 O.2     1  UNL1       -0.4524
     11 C          -1.9677   -0.1709    0.0020 C.ar    1  UNL1        0.1636
     12 C          -1.5417    0.3302    1.1902 C.ar    1  UNL1        0.0955
     13 N          -2.6530    0.5964    1.9721 N.ar    1  UNL1       -0.3510
     14 C          -3.7922    0.2538    1.2553 C.ar    1  UNL1        0.0528
     15 C          -5.1608    0.3168    1.5648 C.ar    1  UNL1       -0.0355
     16 C          -6.1016   -0.1170    0.6004 C.ar    1  UNL1       -0.0315
     17 C          -5.6179   -0.6008   -0.6475 C.ar    1  UNL1        0.1007
     18 N          -6.3661   -1.0510   -1.6739 N.ar    1  UNL1       -0.1908
     19 S          -5.2925   -1.4943   -2.8885 S.2     1  UNL1        0.1165
     20 N          -3.8231   -1.1325   -2.1614 N.ar    1  UNL1       -0.1900
     21 C          -4.2021   -0.6722   -0.9830 C.ar    1  UNL1        0.1125
     22 C          -3.3443   -0.2184    0.0398 C.ar    1  UNL1        0.0707
     23 C          -0.1313    0.3872    1.1722 C.ar    1  UNL1        0.0623
     24 C           0.8999    0.7761    2.0155 C.ar    1  UNL1        0.0411
     25 N           2.1876    0.6663    1.5995 N.ar    1  UNL1       -0.2526
     26 H           7.6008   -0.1784   -1.0941 H       1  UNL1        0.0633
     27 H           7.0530    0.7165    1.1755 H       1  UNL1        0.0619
     28 H           4.6781    0.8884    1.8670 H       1  UNL1        0.0639
     29 H           5.7148   -0.8661   -2.5783 H       1  UNL1        0.0830
     30 H           1.7142   -0.6217   -1.5247 H       1  UNL1        0.0676
     31 H          -2.6083    0.9780    2.9085 H       1  UNL1        0.1660
     32 H          -5.5030    0.6909    2.5264 H       1  UNL1        0.0639
     33 H          -7.1674   -0.0848    0.7999 H       1  UNL1        0.0640
     34 H           0.7469    1.1730    3.0119 H       1  UNL1        0.0837
@<TRIPOS>BOND
     1     1     2   ar
     2     2     3   ar
     3     3     4   ar
     4     4     5   ar
     5     5     6   ar
     6     4     7    1
     7     7     8   ar
     8     8     9   ar
     9     9    10   ar
    10    10    11   ar
    11    11    12   ar
    12    12    13   ar
    13    13    14   ar
    14    14    15   ar
    15    15    16   ar
    16    16    17   ar
    17    17    18   ar
    18    18    19   ar
    19    19    20   ar
    20    20    21   ar
    21    21    22   ar
    22    12    23   ar
    23    23    24   ar
    24    24    25   ar
    25     6     1   ar
    26    25     7   ar
    27    23     9   ar
    28    22    11   ar
    29    22    14   ar
    30    21    17   ar
    31     1    26    1
    32     2    27    1
    33     3    28    1
    34     6    29    1
    35     8    30    1
    36    13    31    1
    37    15    32    1
    38    16    33    1
    39    24    34    1
