@<TRIPOS>MOLECULE
*****
 33 37 0 0 0
SMALL
GASTEIGER

@<TRIPOS>ATOM
      1 C           6.4208    0.5308    0.3367 C.ar    1  UNL1       -0.0436
      2 C           5.9129   -0.3963    1.2330 C.ar    1  UNL1       -0.0583
      3 C           4.5369   -0.6300    1.2755 C.ar    1  UNL1       -0.0357
      4 C           3.6863    0.0704    0.4169 C.ar    1  UNL1        0.0710
      5 N           4.1914    0.9788   -0.4602 N.ar    1  UNL1       -0.2550
      6 C           5.5263    1.1883   -0.4835 C.ar    1  UNL1        0.0283
      7 C           2.2062   -0.1021    0.3800 C.ar    1  UNL1        0.0014
      8 C           1.5202   -0.9962    1.2157 C.ar    1  UNL1       -0.0519
      9 C           0.1247   -1.1474    1.1689 C.ar    1  UNL1       -0.0509
     10 C          -0.6372   -0.3866    0.2600 C.ar    1  UNL1        0.0132
     11 C           0.0213    0.5098   -0.5821 C.ar    1  UNL1        0.0226
     12 C           1.4260    0.6521   -0.5247 C.ar    1  UNL1       -0.0382
     13 S          -1.0503    1.3694   -1.6400 S.2     1  UNL1       -0.0845
     14 C          -2.4064    0.5391   -0.9697 C.ar    1  UNL1        0.0639
     15 C          -3.8160    0.4651   -1.0994 C.ar    1  UNL1        0.1027
     16 N          -4.6025    1.1626   -1.9456 N.ar    1  UNL1       -0.2523
     17 C          -5.9158    0.8669   -1.8289 C.ar    1  UNL1        0.0284
     18 C          -6.4624   -0.0563   -0.9423 C.ar    1  UNL1       -0.0416
     19 C          -5.6250   -0.7637   -0.0783 C.ar    1  UNL1       -0.0348
     20 C          -4.2648   -0.4748   -0.1809 C.ar    1  UNL1        0.0665
     21 N          -3.1730   -0.9631    0.4911 N.ar    1  UNL1       -0.3520
     22 C          -2.0404   -0.3419    0.0069 C.ar    1  UNL1        0.0640
     23 H           7.4834    0.7357    0.2782 H       1  UNL1        0.0633
     24 H           6.5796   -0.9379    1.8982 H       1  UNL1        0.0619
     25 H           4.1638   -1.3588    1.9840 H       1  UNL1        0.0639
     26 H           5.8645    1.9255   -1.2059 H       1  UNL1        0.0830
     27 H           2.0514   -1.6105    1.9373 H       1  UNL1        0.0624
     28 H          -0.3597   -1.8537    1.8375 H       1  UNL1        0.0625
     29 H           1.9076    1.3613   -1.1967 H       1  UNL1        0.0635
     30 H          -6.5623    1.4217   -2.5050 H       1  UNL1        0.0830
     31 H          -7.5349   -0.2225   -0.9259 H       1  UNL1        0.0633
     32 H          -6.0134   -1.4902    0.6257 H       1  UNL1        0.0639
     33 H          -3.1591   -1.6605    1.2236 H       1  UNL1        0.1660
@<TRIPOS>BOND
     1     1     2   ar
     2     2     3   ar
     3     3     4   ar
     4     4     5   ar
     5     5     6   ar
     6     4     7    1
     7     7     8   ar
     8     8     9   ar
     9     9    10   ar
    10    10    11   ar
    11    11    12   ar
    12    11    13   ar
    13    13    14   ar
    14    14    15   ar
    15    15    16   ar
    16    16    17   ar
    17    17    18   ar
    18    18    19   ar
    19    19    20   ar
    20    20    21   ar
    21    21    22   ar
    22     6     1   ar
    23    12     7   ar
    24    22    14   ar
    25    22    10   ar
    26    20    15   ar
    27     1    23    1
    28     2    24    1
    29     3    25    1
    30     6    26    1
    31     8    27    1
    32     9    28    1
    33    12    29    1
    34    17    30    1
    35    18    31    1
    36    19    32    1
    37    21    33    1
