@<TRIPOS>MOLECULE
*****
 48 55 0 0 0
SMALL
GASTEIGER

@<TRIPOS>ATOM
      1 SI         -2.1997    4.5333    0.3938 Si      1  UNL1        0.0000
      2 C          -3.6300    3.5755   -0.2841 C.2     1  UNL1        0.0000
      3 C          -3.3380    2.2632   -0.3505 C.ar    1  UNL1        0.0000
      4 C          -4.2439    1.2104   -0.6294 C.ar    1  UNL1        0.0000
      5 C          -5.6265    1.1979   -0.8984 C.ar    1  UNL1        0.0000
      6 C          -6.0059   -0.1263   -0.9041 C.ar    1  UNL1        0.0000
      7 N          -4.8935   -0.8903   -0.6356 N.ar    1  UNL1        0.0000
      8 C          -3.7822   -0.0906   -0.5556 C.ar    1  UNL1        0.0000
      9 C          -2.4336   -0.5637   -0.3324 C.ar    1  UNL1        0.0000
     10 C          -1.5094    0.4304   -0.0180 C.ar    1  UNL1        0.0000
     11 C          -0.1615   -0.0428    0.2039 C.ar    1  UNL1        0.0000
     12 N           0.9472    0.7556    0.2946 N.ar    1  UNL1        0.0000
     13 C           2.0773    0.0037    0.5556 C.ar    1  UNL1        0.0000
     14 C           1.6856   -1.3228    0.5497 C.ar    1  UNL1        0.0000
     15 C           0.3029   -1.3403    0.2746 C.ar    1  UNL1        0.0000
     16 C          -0.6009   -2.3946   -0.0028 C.ar    1  UNL1        0.0000
     17 C          -0.3064   -3.7062   -0.0697 C.2     1  UNL1        0.0000
     18 SI         -1.7370   -4.6662   -0.7443 Si      1  UNL1        0.0000
     19 C          -2.6787   -3.0499   -0.9046 C.2     1  UNL1        0.0000
     20 C          -1.9812   -1.9966   -0.4181 C.ar    1  UNL1        0.0000
     21 C           3.3684    0.6041    0.7427 C.ar    1  UNL1        0.0000
     22 S           3.5218    2.2340    1.3275 S.2     1  UNL1        0.0000
     23 C           5.2451    2.1973    1.2908 C.ar    1  UNL1        0.0000
     24 C           5.6903    0.9875    0.8349 C.ar    1  UNL1        0.0000
     25 C           7.0243    0.5132    0.6254 C.2     1  UNL1        0.0000
     26 C           7.1097   -0.7446    0.1416 C.2     1  UNL1        0.0000
     27 SI          5.3733   -1.5043   -0.1164 Si      1  UNL1        0.0000
     28 C           4.6197    0.0999    0.5287 C.ar    1  UNL1        0.0000
     29 C          -1.9596    1.8632    0.0677 C.ar    1  UNL1        0.0000
     30 C          -1.2617    2.9153    0.5563 C.2     1  UNL1        0.0000
     31 H          -2.4834    5.1474    1.7127 H       1  UNL1        0.0000
     32 H          -1.5755    5.4326   -0.6061 H       1  UNL1        0.0000
     33 H          -4.5813    4.0382   -0.4913 H       1  UNL1        0.0000
     34 H          -6.2856    2.0466   -1.0208 H       1  UNL1        0.0000
     35 H          -6.9740   -0.5909   -1.0324 H       1  UNL1        0.0000
     36 H          -4.9196   -1.8843   -0.4740 H       1  UNL1        0.0000
     37 H           0.9776    1.7511    0.1476 H       1  UNL1        0.0000
     38 H           2.3235   -2.1826    0.6932 H       1  UNL1        0.0000
     39 H           0.6453   -4.1685    0.1364 H       1  UNL1        0.0000
     40 H          -1.4564   -5.2790   -2.0645 H       1  UNL1        0.0000
     41 H          -2.3598   -5.5659    0.2558 H       1  UNL1        0.0000
     42 H          -3.6462   -3.0805   -1.3678 H       1  UNL1        0.0000
     43 H           5.8166    3.0616    1.5983 H       1  UNL1        0.0000
     44 H           7.8923    1.1254    0.8415 H       1  UNL1        0.0000
     45 H           8.0008   -1.3042   -0.0917 H       1  UNL1        0.0000
     46 H           5.1733   -2.6752    0.7750 H       1  UNL1        0.0000
     47 H           5.1317   -1.7636   -1.5577 H       1  UNL1        0.0000
     48 H          -0.2952    2.9467    1.0219 H       1  UNL1        0.0000
@<TRIPOS>BOND
     1     1     2    1
     2     2     3    2
     3     3     4   ar
     4     4     5   ar
     5     5     6   ar
     6     6     7   ar
     7     7     8   ar
     8     8     9   ar
     9     9    10   ar
    10    10    11   ar
    11    11    12   ar
    12    12    13   ar
    13    13    14   ar
    14    14    15   ar
    15    15    16   ar
    16    16    17    2
    17    17    18    1
    18    18    19    1
    19    19    20    2
    20    13    21    1
    21    21    22   ar
    22    22    23   ar
    23    23    24   ar
    24    24    25    1
    25    25    26    2
    26    26    27    1
    27    27    28    1
    28    10    29   ar
    29    29    30    2
    30    30     1    1
    31    29     3   ar
    32     8     4   ar
    33    20     9   ar
    34    28    21   ar
    35    15    11   ar
    36    20    16   ar
    37    28    24   ar
    38     1    31    1
    39     1    32    1
    40     2    33    1
    41     5    34    1
    42     6    35    1
    43     7    36    1
    44    12    37    1
    45    14    38    1
    46    17    39    1
    47    18    40    1
    48    18    41    1
    49    19    42    1
    50    23    43    1
    51    25    44    1
    52    26    45    1
    53    27    46    1
    54    27    47    1
    55    30    48    1
