@<TRIPOS>MOLECULE
*****
 26 28 0 0 0
SMALL
GASTEIGER

@<TRIPOS>ATOM
      1 C          -4.6425   -0.3642   -0.6375 C.ar    1  UNL1       -0.0616
      2 C          -3.4447   -0.6057   -1.3027 C.ar    1  UNL1       -0.0600
      3 C          -2.2224   -0.3331   -0.6769 C.ar    1  UNL1       -0.0405
      4 C          -2.1709    0.1846    0.6219 C.ar    1  UNL1        0.0328
      5 N          -0.9803    0.4817    1.3109 N.pl3   1  UNL1       -0.2937
      6 C           0.3076    0.3482    0.9130 C.ar    1  UNL1        0.1634
      7 N           0.7529   -0.1010   -0.2377 N.ar    1  UNL1       -0.2246
      8 C           2.1351   -0.0892   -0.2752 C.ar    1  UNL1        0.0803
      9 C           2.9366   -0.5046   -1.3580 C.ar    1  UNL1       -0.0351
     10 C           4.3302   -0.4379   -1.2581 C.ar    1  UNL1       -0.0597
     11 C           4.9307    0.0360   -0.0960 C.ar    1  UNL1       -0.0606
     12 C           4.1570    0.4538    0.9915 C.ar    1  UNL1       -0.0458
     13 C           2.7584    0.3818    0.8784 C.ar    1  UNL1        0.0408
     14 S           1.5517    0.8134    2.0219 S.2     1  UNL1       -0.0521
     15 C          -3.3944    0.4206    1.2746 C.ar    1  UNL1       -0.0405
     16 C          -4.6181    0.1501    0.6539 C.ar    1  UNL1       -0.0600
     17 H          -5.5899   -0.5764   -1.1251 H       1  UNL1        0.0618
     18 H          -3.4530   -1.0076   -2.3125 H       1  UNL1        0.0618
     19 H          -1.3138   -0.5376   -1.2350 H       1  UNL1        0.0636
     20 H          -1.1231    0.8494    2.2421 H       1  UNL1        0.1541
     21 H           2.4627   -0.8734   -2.2622 H       1  UNL1        0.0639
     22 H           4.9447   -0.7593   -2.0958 H       1  UNL1        0.0618
     23 H           6.0159    0.0829   -0.0309 H       1  UNL1        0.0618
     24 H           4.6266    0.8234    1.8979 H       1  UNL1        0.0629
     25 H          -3.4086    0.8223    2.2848 H       1  UNL1        0.0636
     26 H          -5.5488    0.3418    1.1810 H       1  UNL1        0.0618
@<TRIPOS>BOND
     1     1     2   ar
     2     2     3   ar
     3     3     4   ar
     4     4     5    1
     5     5     6    1
     6     6     7   ar
     7     7     8   ar
     8     8     9   ar
     9     9    10   ar
    10    10    11   ar
    11    11    12   ar
    12    12    13   ar
    13    13    14   ar
    14     4    15   ar
    15    15    16   ar
    16    16     1   ar
    17    14     6   ar
    18    13     8   ar
    19     1    17    1
    20     2    18    1
    21     3    19    1
    22     5    20    1
    23     9    21    1
    24    10    22    1
    25    11    23    1
    26    12    24    1
    27    15    25    1
    28    16    26    1
