@<TRIPOS>MOLECULE
*****
 34 37 0 0 0
SMALL
GASTEIGER

@<TRIPOS>ATOM
      1 C           6.1575    0.7420   -0.7456 C.ar    1  UNL1       -0.0615
      2 C           5.3302    1.3989    0.1669 C.ar    1  UNL1       -0.0583
      3 C           3.9506    1.1942    0.1309 C.ar    1  UNL1       -0.0193
      4 C           3.4068    0.3175   -0.8101 C.ar    1  UNL1        0.1304
      5 O           2.0500    0.1357   -0.9154 O.3     1  UNL1       -0.4372
      6 C           1.4163   -0.4880    0.1522 C.ar    1  UNL1        0.2343
      7 N           2.1265   -1.1736    1.0795 N.ar    1  UNL1       -0.2004
      8 C           1.4507   -1.7775    2.0733 C.ar    1  UNL1        0.1236
      9 N           0.1266   -1.7985    2.2741 N.ar    1  UNL1       -0.2004
     10 C          -0.5251   -1.1180    1.3216 C.ar    1  UNL1        0.2343
     11 O          -1.8802   -0.9947    1.2914 O.2     1  UNL1       -0.4366
     12 C          -2.2081   -0.2473    0.1929 C.ar    1  UNL1        0.1384
     13 C          -3.6331    0.0004   -0.0196 C.ar    1  UNL1        0.0174
     14 C          -4.0711    0.7580   -1.1168 C.ar    1  UNL1       -0.0511
     15 C          -5.4328    0.9988   -1.3261 C.ar    1  UNL1       -0.0611
     16 C          -6.3770    0.4855   -0.4410 C.ar    1  UNL1       -0.0617
     17 C          -5.9614   -0.2683    0.6530 C.ar    1  UNL1       -0.0611
     18 C          -4.6001   -0.5085    0.8614 C.ar    1  UNL1       -0.0511
     19 C          -1.0544    0.1090   -0.4807 C.ar    1  UNL1       -0.0013
     20 C           0.0293   -0.4489    0.2447 C.ar    1  UNL1        0.1022
     21 C           4.2280   -0.3234   -1.7373 C.ar    1  UNL1       -0.0193
     22 C           5.6071   -0.1164   -1.6988 C.ar    1  UNL1       -0.0583
     23 H           7.2324    0.9019   -0.7158 H       1  UNL1        0.0618
     24 H           5.7601    2.0713    0.9045 H       1  UNL1        0.0619
     25 H           3.3079    1.7126    0.8359 H       1  UNL1        0.0654
     26 H           2.0534   -2.3137    2.8008 H       1  UNL1        0.1049
     27 H          -3.3603    1.1730   -1.8266 H       1  UNL1        0.0625
     28 H          -5.7546    1.5878   -2.1813 H       1  UNL1        0.0618
     29 H          -7.4354    0.6723   -0.6031 H       1  UNL1        0.0618
     30 H          -6.6942   -0.6717    1.3474 H       1  UNL1        0.0618
     31 H          -4.3024   -1.1011    1.7245 H       1  UNL1        0.0625
     32 H          -0.9927    0.6993   -1.3838 H       1  UNL1        0.0664
     33 H           3.7972   -0.9861   -2.4819 H       1  UNL1        0.0654
     34 H           6.2524   -0.6224   -2.4120 H       1  UNL1        0.0619
@<TRIPOS>BOND
     1     1     2   ar
     2     2     3   ar
     3     3     4   ar
     4     4     5    1
     5     5     6    1
     6     6     7   ar
     7     7     8   ar
     8     8     9   ar
     9     9    10   ar
    10    10    11   ar
    11    11    12   ar
    12    12    13    1
    13    13    14   ar
    14    14    15   ar
    15    15    16   ar
    16    16    17   ar
    17    17    18   ar
    18    12    19   ar
    19    19    20   ar
    20     4    21   ar
    21    21    22   ar
    22    22     1   ar
    23    20     6   ar
    24    20    10   ar
    25    18    13   ar
    26     1    23    1
    27     2    24    1
    28     3    25    1
    29     8    26    1
    30    14    27    1
    31    15    28    1
    32    16    29    1
    33    17    30    1
    34    18    31    1
    35    19    32    1
    36    21    33    1
    37    22    34    1
