@<TRIPOS>MOLECULE
*****
 36 38 0 0 0
SMALL
GASTEIGER

@<TRIPOS>ATOM
      1 C           5.7857    0.9087   -1.5462 C.ar    1  UNL1       -0.0615
      2 C           5.5311    0.1144   -0.4298 C.ar    1  UNL1       -0.0583
      3 C           4.2226   -0.0480    0.0384 C.ar    1  UNL1       -0.0199
      4 C           3.1620    0.5844   -0.6103 C.ar    1  UNL1        0.1205
      5 O           1.8407    0.5130   -0.2714 O.3     1  UNL1       -0.4920
      6 C           1.4517   -0.2658    0.8583 C.3     1  UNL1        0.0900
      7 C           1.2552   -1.7379    0.4859 C.3     1  UNL1       -0.0102
      8 C           0.2415   -1.9515   -0.6416 C.3     1  UNL1        0.0296
      9 C          -1.1447   -1.6595   -0.2083 C.ar    1  UNL1        0.2278
     10 N          -1.8418   -0.5530   -0.3108 N.ar    1  UNL1       -0.1913
     11 C          -3.0398   -0.8952    0.2811 C.ar    1  UNL1        0.2035
     12 C          -4.1415    0.0444    0.3953 C.ar    1  UNL1        0.0405
     13 C          -4.0273    1.3575   -0.0727 C.ar    1  UNL1       -0.0481
     14 C          -5.1012    2.2372    0.0530 C.ar    1  UNL1       -0.0429
     15 C          -6.2633    1.7743    0.6470 C.ar    1  UNL1        0.0276
     16 N          -6.4162    0.5160    1.1114 N.ar    1  UNL1       -0.2626
     17 C          -5.3534   -0.3179    0.9743 C.ar    1  UNL1        0.0383
     18 N          -3.0763   -2.1587    0.7368 N.ar    1  UNL1       -0.0560
     19 O          -1.8216   -2.6673    0.4102 O.2     1  UNL1       -0.3377
     20 C           3.4266    1.3774   -1.7310 C.ar    1  UNL1       -0.0199
     21 C           4.7315    1.5415   -2.1988 C.ar    1  UNL1       -0.0583
     22 H           6.8033    1.0336   -1.9065 H       1  UNL1        0.0618
     23 H           6.3537   -0.3813    0.0800 H       1  UNL1        0.0619
     24 H           4.0737   -0.6762    0.9089 H       1  UNL1        0.0654
     25 H           0.5024    0.1517    1.2126 H       1  UNL1        0.0696
     26 H           2.1464   -0.1485    1.6974 H       1  UNL1        0.0696
     27 H           2.2115   -2.1573    0.1534 H       1  UNL1        0.0303
     28 H           0.9536   -2.2968    1.3801 H       1  UNL1        0.0303
     29 H           0.4933   -1.3375   -1.5135 H       1  UNL1        0.0362
     30 H           0.2958   -2.9960   -0.9724 H       1  UNL1        0.0362
     31 H          -3.1045    1.7008   -0.5360 H       1  UNL1        0.0626
     32 H          -5.0301    3.2588   -0.3031 H       1  UNL1        0.0633
     33 H          -7.1276    2.4211    0.7677 H       1  UNL1        0.0829
     34 H          -5.5209   -1.3199    1.3627 H       1  UNL1        0.0837
     35 H           2.6063    1.8728   -2.2445 H       1  UNL1        0.0654
     36 H           4.9214    2.1605   -3.0712 H       1  UNL1        0.0619
@<TRIPOS>BOND
     1     1     2   ar
     2     2     3   ar
     3     3     4   ar
     4     4     5    1
     5     5     6    1
     6     6     7    1
     7     7     8    1
     8     8     9    1
     9     9    10   ar
    10    10    11   ar
    11    11    12    1
    12    12    13   ar
    13    13    14   ar
    14    14    15   ar
    15    15    16   ar
    16    16    17   ar
    17    11    18   ar
    18    18    19   ar
    19     4    20   ar
    20    20    21   ar
    21    21     1   ar
    22    19     9   ar
    23    17    12   ar
    24     1    22    1
    25     2    23    1
    26     3    24    1
    27     6    25    1
    28     6    26    1
    29     7    27    1
    30     7    28    1
    31     8    29    1
    32     8    30    1
    33    13    31    1
    34    14    32    1
    35    15    33    1
    36    17    34    1
    37    20    35    1
    38    21    36    1
