@<TRIPOS>MOLECULE
*****
 34 38 0 0 0
SMALL
GASTEIGER

@<TRIPOS>ATOM
      1 C           6.1791    0.1086    1.1959 C.ar    1  UNL1       -0.0611
      2 C           6.1009   -0.8752    0.2121 C.ar    1  UNL1       -0.0598
      3 C           4.8749   -1.2241   -0.3632 C.ar    1  UNL1       -0.0378
      4 C           3.7346   -0.5483    0.0872 C.ar    1  UNL1        0.0469
      5 N           2.4167   -0.6770   -0.2884 N.ar    1  UNL1       -0.3529
      6 C           1.6070    0.1905    0.4132 C.ar    1  UNL1        0.0660
      7 C           0.1547    0.2971    0.2439 C.ar    1  UNL1        0.0891
      8 C          -0.5641   -0.4821   -0.6595 C.ar    1  UNL1       -0.0103
      9 C          -1.9418   -0.2523   -0.6933 C.ar    1  UNL1        0.0511
     10 N          -2.9279   -0.8354   -1.4540 N.ar    1  UNL1       -0.3540
     11 C          -4.1570   -0.2968   -1.1555 C.ar    1  UNL1        0.0504
     12 C          -5.4199   -0.5790   -1.6720 C.ar    1  UNL1       -0.0196
     13 C          -6.4541    0.1691   -1.1304 C.ar    1  UNL1        0.0295
     14 N          -6.3097    1.1122   -0.1741 N.ar    1  UNL1       -0.2625
     15 C          -5.0701    1.3686    0.3127 C.ar    1  UNL1        0.0373
     16 C          -3.9566    0.6675   -0.1677 C.ar    1  UNL1        0.0269
     17 C          -2.5569    0.6945    0.1233 C.ar    1  UNL1        0.0270
     18 C          -1.7548    1.4310    1.0003 C.ar    1  UNL1        0.0381
     19 N          -0.4161    1.2241    1.0493 N.ar    1  UNL1       -0.2528
     20 C           2.4518    0.8906    1.2624 C.ar    1  UNL1       -0.0272
     21 C           3.7832    0.4378    1.0678 C.ar    1  UNL1        0.0003
     22 C           5.0277    0.7735    1.6334 C.ar    1  UNL1       -0.0526
     23 H           7.1425    0.3645    1.6299 H       1  UNL1        0.0618
     24 H           7.0075   -1.3799   -0.1139 H       1  UNL1        0.0618
     25 H           4.8184   -1.9904   -1.1288 H       1  UNL1        0.0638
     26 H           2.1018   -1.3286   -0.9898 H       1  UNL1        0.1659
     27 H          -0.1034   -1.2202   -1.2996 H       1  UNL1        0.0660
     28 H          -2.7729   -1.5609   -2.1394 H       1  UNL1        0.1659
     29 H          -5.5918   -1.3236   -2.4380 H       1  UNL1        0.0653
     30 H          -7.4763    0.0204   -1.4700 H       1  UNL1        0.0830
     31 H          -5.0045    2.1332    1.0783 H       1  UNL1        0.0836
     32 H          -2.1463    2.1871    1.6712 H       1  UNL1        0.0836
     33 H           2.1291    1.6569    1.9563 H       1  UNL1        0.0645
     34 H           5.0943    1.5392    2.4004 H       1  UNL1        0.0624
@<TRIPOS>BOND
     1     1     2   ar
     2     2     3   ar
     3     3     4   ar
     4     4     5   ar
     5     5     6   ar
     6     6     7    1
     7     7     8   ar
     8     8     9   ar
     9     9    10   ar
    10    10    11   ar
    11    11    12   ar
    12    12    13   ar
    13    13    14   ar
    14    14    15   ar
    15    15    16   ar
    16    16    17   ar
    17    17    18   ar
    18    18    19   ar
    19     6    20   ar
    20    20    21   ar
    21    21    22   ar
    22    22     1   ar
    23    21     4   ar
    24    19     7   ar
    25    17     9   ar
    26    16    11   ar
    27     1    23    1
    28     2    24    1
    29     3    25    1
    30     5    26    1
    31     8    27    1
    32    10    28    1
    33    12    29    1
    34    13    30    1
    35    15    31    1
    36    18    32    1
    37    20    33    1
    38    22    34    1
