@<TRIPOS>MOLECULE
*****
 29 32 0 0 0
SMALL
GASTEIGER

@<TRIPOS>ATOM
      1 C          -4.9986    0.8286    0.7731 C.ar    1  UNL1       -0.0611
      2 C          -5.0452    0.4516   -0.5676 C.ar    1  UNL1       -0.0598
      3 C          -3.8803    0.1109   -1.2620 C.ar    1  UNL1       -0.0378
      4 C          -2.6710    0.1634   -0.5593 C.ar    1  UNL1        0.0469
      5 N          -1.3881   -0.1119   -0.9738 N.ar    1  UNL1       -0.3530
      6 C          -0.4904    0.0709    0.0514 C.ar    1  UNL1        0.0639
      7 C           0.9154   -0.1449   -0.1020 C.ar    1  UNL1        0.0640
      8 C           1.6470   -0.5487   -1.2028 C.ar    1  UNL1       -0.0258
      9 C           3.0199   -0.6101   -0.8294 C.ar    1  UNL1        0.0184
     10 C           4.2043   -0.9454   -1.4961 C.ar    1  UNL1        0.0367
     11 N           5.3949   -0.9060   -0.8475 N.ar    1  UNL1       -0.2625
     12 C           5.4164   -0.5374    0.4529 C.ar    1  UNL1        0.0295
     13 C           4.3022   -0.1874    1.2012 C.ar    1  UNL1       -0.0196
     14 C           3.0933   -0.2365    0.5109 C.ar    1  UNL1        0.0498
     15 N           1.8111    0.0387    0.9251 N.ar    1  UNL1       -0.3529
     16 C          -1.2212    0.4747    1.1525 C.ar    1  UNL1       -0.0272
     17 C          -2.5938    0.5364    0.7804 C.ar    1  UNL1        0.0003
     18 C          -3.7796    0.8755    1.4598 C.ar    1  UNL1       -0.0526
     19 H          -5.9172    1.0895    1.2929 H       1  UNL1        0.0618
     20 H          -6.0025    0.4216   -1.0833 H       1  UNL1        0.0618
     21 H          -3.9202   -0.1822   -2.3058 H       1  UNL1        0.0638
     22 H          -1.1441   -0.4081   -1.9067 H       1  UNL1        0.1659
     23 H           1.2518   -0.7800   -2.1824 H       1  UNL1        0.0646
     24 H           4.2323   -1.2460   -2.5369 H       1  UNL1        0.0836
     25 H           6.4052   -0.5293    0.9050 H       1  UNL1        0.0830
     26 H           4.3759    0.1005    2.2413 H       1  UNL1        0.0653
     27 H           1.5620    0.3352    1.8572 H       1  UNL1        0.1659
     28 H          -0.8273    0.7062    2.1323 H       1  UNL1        0.0645
     29 H          -3.7523    1.1703    2.5043 H       1  UNL1        0.0624
@<TRIPOS>BOND
     1     1     2   ar
     2     2     3   ar
     3     3     4   ar
     4     4     5   ar
     5     5     6   ar
     6     6     7    1
     7     7     8   ar
     8     8     9   ar
     9     9    10   ar
    10    10    11   ar
    11    11    12   ar
    12    12    13   ar
    13    13    14   ar
    14    14    15   ar
    15     6    16   ar
    16    16    17   ar
    17    17    18   ar
    18    18     1   ar
    19    17     4   ar
    20    15     7   ar
    21    14     9   ar
    22     1    19    1
    23     2    20    1
    24     3    21    1
    25     5    22    1
    26     8    23    1
    27    10    24    1
    28    12    25    1
    29    13    26    1
    30    15    27    1
    31    16    28    1
    32    18    29    1
