@<TRIPOS>MOLECULE
*****
 34 37 0 0 0
SMALL
GASTEIGER

@<TRIPOS>ATOM
      1 C          -6.2663    0.4107    0.0629 C.ar    1  UNL1       -0.0611
      2 C          -6.1435   -0.8895   -0.4229 C.ar    1  UNL1       -0.0598
      3 C          -4.8865   -1.4694   -0.6211 C.ar    1  UNL1       -0.0378
      4 C          -3.7623   -0.6943   -0.3130 C.ar    1  UNL1        0.0469
      5 N          -2.4227   -0.9934   -0.4046 N.ar    1  UNL1       -0.3541
      6 C          -1.6355    0.0649    0.0045 C.ar    1  UNL1        0.0475
      7 C          -0.1631    0.0380    0.0171 C.ar    1  UNL1       -0.0016
      8 C           0.5670   -1.0833   -0.3922 C.ar    1  UNL1       -0.0520
      9 C           1.9736   -1.0891   -0.3727 C.ar    1  UNL1       -0.0519
     10 C           2.7155    0.0245    0.0563 C.ar    1  UNL1        0.0019
     11 C           4.1997    0.0520    0.0895 C.ar    1  UNL1        0.0890
     12 C           5.0218   -1.0092   -0.2958 C.ar    1  UNL1        0.0535
     13 N           6.3811   -0.9711   -0.2606 N.ar    1  UNL1       -0.2596
     14 C           6.9110    0.1866    0.1817 C.ar    1  UNL1        0.0457
     15 C           6.1228    1.2520    0.5690 C.ar    1  UNL1        0.0464
     16 N           4.7704    1.2077    0.5316 N.ar    1  UNL1       -0.2520
     17 C           1.9676    1.1436    0.4645 C.ar    1  UNL1       -0.0519
     18 C           0.5643    1.1522    0.4461 C.ar    1  UNL1       -0.0520
     19 C          -2.5249    1.0676    0.3669 C.ar    1  UNL1       -0.0287
     20 C          -3.8547    0.6047    0.1728 C.ar    1  UNL1        0.0003
     21 C          -5.1297    1.1699    0.3652 C.ar    1  UNL1       -0.0526
     22 H          -7.2534    0.8421    0.2095 H       1  UNL1        0.0618
     23 H          -7.0387   -1.4632   -0.6519 H       1  UNL1        0.0618
     24 H          -4.7942   -2.4819   -0.9994 H       1  UNL1        0.0638
     25 H          -2.0759   -1.8811   -0.7322 H       1  UNL1        0.1659
     26 H           0.0703   -1.9847   -0.7378 H       1  UNL1        0.0624
     27 H           2.4632   -1.9997   -0.7066 H       1  UNL1        0.0624
     28 H           4.6248   -1.9506   -0.6549 H       1  UNL1        0.0851
     29 H           7.9929    0.2361    0.2169 H       1  UNL1        0.0845
     30 H           6.5572    2.1796    0.9236 H       1  UNL1        0.0845
     31 H           2.4779    2.0428    0.8095 H       1  UNL1        0.0624
     32 H           0.0590    2.0557    0.7772 H       1  UNL1        0.0624
     33 H          -2.2564    2.0473    0.7386 H       1  UNL1        0.0645
     34 H          -5.2324    2.1824    0.7434 H       1  UNL1        0.0624
@<TRIPOS>BOND
     1     1     2   ar
     2     2     3   ar
     3     3     4   ar
     4     4     5   ar
     5     5     6   ar
     6     6     7    1
     7     7     8   ar
     8     8     9   ar
     9     9    10   ar
    10    10    11    1
    11    11    12   ar
    12    12    13   ar
    13    13    14   ar
    14    14    15   ar
    15    15    16   ar
    16    10    17   ar
    17    17    18   ar
    18     6    19   ar
    19    19    20   ar
    20    20    21   ar
    21    21     1   ar
    22    20     4   ar
    23    18     7   ar
    24    16    11   ar
    25     1    22    1
    26     2    23    1
    27     3    24    1
    28     5    25    1
    29     8    26    1
    30     9    27    1
    31    12    28    1
    32    14    29    1
    33    15    30    1
    34    17    31    1
    35    18    32    1
    36    19    33    1
    37    21    34    1
