@<TRIPOS>MOLECULE
*****
 28 31 0 0 0
SMALL
GASTEIGER

@<TRIPOS>ATOM
      1 C           4.8246    0.4741   -0.4782 C.ar    1  UNL1       -0.0611
      2 C           4.7798   -0.3063    0.6754 C.ar    1  UNL1       -0.0598
      3 C           3.5594   -0.7141    1.2228 C.ar    1  UNL1       -0.0378
      4 C           2.3905   -0.3086    0.5680 C.ar    1  UNL1        0.0469
      5 N           1.0709   -0.5534    0.8694 N.ar    1  UNL1       -0.3541
      6 C           0.2211    0.0375   -0.0452 C.ar    1  UNL1        0.0475
      7 C          -1.2502   -0.0504    0.0166 C.ar    1  UNL1        0.0005
      8 C          -1.9072   -0.7621    1.0401 C.ar    1  UNL1       -0.0505
      9 C          -3.3069   -0.8583    1.1177 C.ar    1  UNL1       -0.0341
     10 C          -4.0263   -0.2072    0.1200 C.ar    1  UNL1        0.0858
     11 N          -5.3598   -0.0709   -0.1437 N.ar    1  UNL1       -0.2571
     12 N          -5.5809    0.6656   -1.2446 N.ar    1  UNL1       -0.0673
     13 N          -4.3970    1.0268   -1.7247 N.ar    1  UNL1       -0.1296
     14 C          -3.4291    0.5054   -0.9076 C.ar    1  UNL1        0.1131
     15 C          -2.0300    0.5894   -0.9671 C.ar    1  UNL1       -0.0233
     16 C           1.0497    0.6787   -0.9566 C.ar    1  UNL1       -0.0287
     17 C           2.4052    0.4694   -0.5836 C.ar    1  UNL1        0.0003
     18 C           3.6444    0.8694   -1.1186 C.ar    1  UNL1       -0.0526
     19 H           5.7845    0.7801   -0.8870 H       1  UNL1        0.0618
     20 H           5.7081   -0.6031    1.1582 H       1  UNL1        0.0618
     21 H           3.5281   -1.3216    2.1211 H       1  UNL1        0.0638
     22 H           0.7797   -1.0995    1.6647 H       1  UNL1        0.1659
     23 H          -1.3404   -1.2688    1.8168 H       1  UNL1        0.0625
     24 H          -3.7912   -1.4118    1.9149 H       1  UNL1        0.0639
     25 H          -6.1546   -0.4385    0.3639 H       1  UNL1        0.1907
     26 H          -1.5837    1.1515   -1.7788 H       1  UNL1        0.0646
     27 H           0.7247    1.2491   -1.8164 H       1  UNL1        0.0645
     28 H           3.6864    1.4775   -2.0172 H       1  UNL1        0.0624
@<TRIPOS>BOND
     1     1     2   ar
     2     2     3   ar
     3     3     4   ar
     4     4     5   ar
     5     5     6   ar
     6     6     7    1
     7     7     8   ar
     8     8     9   ar
     9     9    10   ar
    10    10    11   ar
    11    11    12   ar
    12    12    13   ar
    13    13    14   ar
    14    14    15   ar
    15     6    16   ar
    16    16    17   ar
    17    17    18   ar
    18    18     1   ar
    19    17     4   ar
    20    15     7   ar
    21    14    10   ar
    22     1    19    1
    23     2    20    1
    24     3    21    1
    25     5    22    1
    26     8    23    1
    27     9    24    1
    28    11    25    1
    29    15    26    1
    30    16    27    1
    31    18    28    1
