@<TRIPOS>MOLECULE
*****
 35 39 0 0 0
SMALL
GASTEIGER

@<TRIPOS>ATOM
      1 C           6.2939    0.6415   -0.1419 C.ar    1  UNL1       -0.0611
      2 C           6.2773   -0.7504   -0.2051 C.ar    1  UNL1       -0.0598
      3 C           5.0709   -1.4575   -0.2083 C.ar    1  UNL1       -0.0378
      4 C           3.8867   -0.7138   -0.1456 C.ar    1  UNL1        0.0469
      5 N           2.5751   -1.1283   -0.1329 N.ar    1  UNL1       -0.3541
      6 C           1.7031   -0.0594   -0.0629 C.ar    1  UNL1        0.0475
      7 C           0.2340   -0.1951   -0.0336 C.ar    1  UNL1        0.0003
      8 C          -0.3909   -1.4506   -0.0759 C.ar    1  UNL1       -0.0519
      9 C          -1.7892   -1.5857   -0.0483 C.ar    1  UNL1       -0.0513
     10 C          -2.5960   -0.4360    0.0238 C.ar    1  UNL1        0.0090
     11 C          -1.9679    0.8090    0.0656 C.ar    1  UNL1        0.0492
     12 C          -0.5724    0.9561    0.0386 C.ar    1  UNL1       -0.0286
     13 N          -2.9602    1.7604    0.1332 N.ar    1  UNL1       -0.3390
     14 C          -4.1906    1.1683    0.1358 C.ar    1  UNL1        0.1391
     15 N          -5.3562    1.8389    0.1947 N.ar    1  UNL1       -0.2375
     16 C          -6.4329    1.0201    0.1833 C.ar    1  UNL1        0.0299
     17 C          -6.3964   -0.3672    0.1189 C.ar    1  UNL1       -0.0429
     18 C          -5.1590   -1.0101    0.0596 C.ar    1  UNL1       -0.0490
     19 C          -4.0055   -0.2069    0.0684 C.ar    1  UNL1        0.0264
     20 C           2.5090    1.0711   -0.0307 C.ar    1  UNL1       -0.0287
     21 C           3.8730    0.6745   -0.0819 C.ar    1  UNL1        0.0003
     22 C           5.0986    1.3674   -0.0798 C.ar    1  UNL1       -0.0526
     23 H           7.2433    1.1712   -0.1407 H       1  UNL1        0.0618
     24 H           7.2168   -1.2963   -0.2528 H       1  UNL1        0.0618
     25 H           5.0611   -2.5412   -0.2576 H       1  UNL1        0.0638
     26 H           2.3018   -2.0976   -0.1705 H       1  UNL1        0.1659
     27 H           0.1885   -2.3669   -0.1319 H       1  UNL1        0.0624
     28 H          -2.2407   -2.5729   -0.0826 H       1  UNL1        0.0624
     29 H          -0.1362    1.9488    0.0735 H       1  UNL1        0.0645
     30 H          -2.8221    2.7579    0.1755 H       1  UNL1        0.1673
     31 H          -7.3891    1.5365    0.2300 H       1  UNL1        0.0830
     32 H          -7.3174   -0.9401    0.1150 H       1  UNL1        0.0633
     33 H          -5.0919   -2.0913    0.0085 H       1  UNL1        0.0625
     34 H           2.1626    2.0941    0.0244 H       1  UNL1        0.0645
     35 H           5.1187    2.4518   -0.0308 H       1  UNL1        0.0624
@<TRIPOS>BOND
     1     1     2   ar
     2     2     3   ar
     3     3     4   ar
     4     4     5   ar
     5     5     6   ar
     6     6     7    1
     7     7     8   ar
     8     8     9   ar
     9     9    10   ar
    10    10    11   ar
    11    11    12   ar
    12    11    13   ar
    13    13    14   ar
    14    14    15   ar
    15    15    16   ar
    16    16    17   ar
    17    17    18   ar
    18    18    19   ar
    19     6    20   ar
    20    20    21   ar
    21    21    22   ar
    22    22     1   ar
    23    21     4   ar
    24    12     7   ar
    25    19    14   ar
    26    19    10   ar
    27     1    23    1
    28     2    24    1
    29     3    25    1
    30     5    26    1
    31     8    27    1
    32     9    28    1
    33    12    29    1
    34    13    30    1
    35    16    31    1
    36    17    32    1
    37    18    33    1
    38    20    34    1
    39    22    35    1
