@<TRIPOS>MOLECULE
*****
 35 39 0 0 0
SMALL
GASTEIGER

@<TRIPOS>ATOM
      1 C           6.4559   -0.0533    0.7564 C.ar    1  UNL1       -0.0611
      2 C           6.2795    1.1761    0.1244 C.ar    1  UNL1       -0.0598
      3 C           5.0052    1.6251   -0.2359 C.ar    1  UNL1       -0.0378
      4 C           3.9195    0.7936    0.0627 C.ar    1  UNL1        0.0469
      5 N           2.5748    0.9687   -0.1685 N.ar    1  UNL1       -0.3541
      6 C           1.8354   -0.1052    0.2881 C.ar    1  UNL1        0.0475
      7 C           0.3679   -0.2000    0.1784 C.ar    1  UNL1       -0.0006
      8 C          -0.3023   -1.3233    0.6670 C.ar    1  UNL1       -0.0520
      9 C          -1.6964   -1.4438    0.5779 C.ar    1  UNL1       -0.0523
     10 C          -2.4747   -0.4213   -0.0153 C.ar    1  UNL1       -0.0031
     11 C          -1.8010    0.6965   -0.5008 C.ar    1  UNL1        0.0211
     12 C          -0.3950    0.8203   -0.4121 C.ar    1  UNL1       -0.0383
     13 S          -2.8867    1.8358   -1.1852 S.2     1  UNL1       -0.0882
     14 C          -4.2632    0.8691   -0.8502 C.ar    1  UNL1        0.0205
     15 C          -5.6053    1.1796   -1.1487 C.ar    1  UNL1       -0.0474
     16 C          -6.6060    0.2701   -0.8021 C.ar    1  UNL1       -0.0607
     17 C          -6.2840   -0.9227   -0.1727 C.ar    1  UNL1       -0.0611
     18 C          -4.9510   -1.2255    0.1209 C.ar    1  UNL1       -0.0529
     19 C          -3.9084   -0.3230   -0.2177 C.ar    1  UNL1       -0.0031
     20 C           2.7620   -0.9877    0.8274 C.ar    1  UNL1       -0.0287
     21 C           4.0655   -0.4369    0.6921 C.ar    1  UNL1        0.0003
     22 C           5.3571   -0.8706    1.0466 C.ar    1  UNL1       -0.0526
     23 H           7.4557   -0.3829    1.0278 H       1  UNL1        0.0618
     24 H           7.1459    1.7968   -0.0926 H       1  UNL1        0.0618
     25 H           4.8710    2.5827   -0.7279 H       1  UNL1        0.0638
     26 H           2.1936    1.7868   -0.6173 H       1  UNL1        0.1659
     27 H           0.2454   -2.1390    1.1324 H       1  UNL1        0.0624
     28 H          -2.1775   -2.3358    0.9714 H       1  UNL1        0.0624
     29 H           0.0667    1.7170   -0.8100 H       1  UNL1        0.0635
     30 H          -5.8600    2.1137   -1.6418 H       1  UNL1        0.0629
     31 H          -7.6443    0.5011   -1.0284 H       1  UNL1        0.0618
     32 H          -7.0686   -1.6264    0.0943 H       1  UNL1        0.0618
     33 H          -4.7156   -2.1650    0.6147 H       1  UNL1        0.0624
     34 H           2.5372   -1.9437    1.2802 H       1  UNL1        0.0645
     35 H           5.5017   -1.8272    1.5392 H       1  UNL1        0.0624
@<TRIPOS>BOND
     1     1     2   ar
     2     2     3   ar
     3     3     4   ar
     4     4     5   ar
     5     5     6   ar
     6     6     7    1
     7     7     8   ar
     8     8     9   ar
     9     9    10   ar
    10    10    11   ar
    11    11    12   ar
    12    11    13   ar
    13    13    14   ar
    14    14    15   ar
    15    15    16   ar
    16    16    17   ar
    17    17    18   ar
    18    18    19   ar
    19     6    20   ar
    20    20    21   ar
    21    21    22   ar
    22    22     1   ar
    23    21     4   ar
    24    12     7   ar
    25    19    14   ar
    26    19    10   ar
    27     1    23    1
    28     2    24    1
    29     3    25    1
    30     5    26    1
    31     8    27    1
    32     9    28    1
    33    12    29    1
    34    15    30    1
    35    16    31    1
    36    17    32    1
    37    18    33    1
    38    20    34    1
    39    22    35    1
