@<TRIPOS>MOLECULE
*****
 30 33 0 0 0
SMALL
GASTEIGER

@<TRIPOS>ATOM
      1 C          -5.2774    0.7168   -0.0623 C.ar    1  UNL1       -0.0611
      2 C          -5.0737    0.0045    1.1180 C.ar    1  UNL1       -0.0598
      3 C          -3.7905   -0.3889    1.5102 C.ar    1  UNL1       -0.0378
      4 C          -2.7242   -0.0399    0.6731 C.ar    1  UNL1        0.0469
      5 N          -1.3768   -0.2869    0.7991 N.ar    1  UNL1       -0.3541
      6 C          -0.6627    0.2372   -0.2611 C.ar    1  UNL1        0.0475
      7 C           0.7994    0.1295   -0.4002 C.ar    1  UNL1        0.0005
      8 C           1.4499    0.6876   -1.5051 C.ar    1  UNL1       -0.0505
      9 C           2.8383    0.5898   -1.6448 C.ar    1  UNL1       -0.0336
     10 C           3.6132   -0.0602   -0.6982 C.ar    1  UNL1        0.0892
     11 N           4.9489   -0.1359   -0.8644 N.ar    1  UNL1       -0.2519
     12 C           5.6366   -0.7845    0.0993 C.ar    1  UNL1        0.0464
     13 C           5.0152   -1.3423    1.1971 C.ar    1  UNL1        0.0464
     14 N           3.6786   -1.2761    1.3799 N.ar    1  UNL1       -0.2519
     15 C           2.9741   -0.6318    0.4274 C.ar    1  UNL1        0.0898
     16 C           1.5916   -0.5269    0.5536 C.ar    1  UNL1       -0.0251
     17 C          -1.6077    0.8366   -1.0828 C.ar    1  UNL1       -0.0287
     18 C          -2.8976    0.6697   -0.5093 C.ar    1  UNL1        0.0003
     19 C          -4.1978    1.0563   -0.8861 C.ar    1  UNL1       -0.0526
     20 H          -6.2837    1.0126   -0.3481 H       1  UNL1        0.0618
     21 H          -5.9255   -0.2499    1.7447 H       1  UNL1        0.0618
     22 H          -3.6351   -0.9434    2.4297 H       1  UNL1        0.0638
     23 H          -0.9782   -0.7903    1.5767 H       1  UNL1        0.1659
     24 H           0.8935    1.2093   -2.2795 H       1  UNL1        0.0625
     25 H           3.3236    1.0310   -2.5119 H       1  UNL1        0.0640
     26 H           6.7100   -0.8430   -0.0382 H       1  UNL1        0.0845
     27 H           5.5765   -1.8612    1.9655 H       1  UNL1        0.0845
     28 H           1.1500   -0.9818    1.4346 H       1  UNL1        0.0646
     29 H          -1.4047    1.3508   -2.0125 H       1  UNL1        0.0645
     30 H          -4.3639    1.6114   -1.8043 H       1  UNL1        0.0624
@<TRIPOS>BOND
     1     1     2   ar
     2     2     3   ar
     3     3     4   ar
     4     4     5   ar
     5     5     6   ar
     6     6     7    1
     7     7     8   ar
     8     8     9   ar
     9     9    10   ar
    10    10    11   ar
    11    11    12   ar
    12    12    13   ar
    13    13    14   ar
    14    14    15   ar
    15    15    16   ar
    16     6    17   ar
    17    17    18   ar
    18    18    19   ar
    19    19     1   ar
    20    18     4   ar
    21    16     7   ar
    22    15    10   ar
    23     1    20    1
    24     2    21    1
    25     3    22    1
    26     5    23    1
    27     8    24    1
    28     9    25    1
    29    12    26    1
    30    13    27    1
    31    16    28    1
    32    17    29    1
    33    19    30    1
