@<TRIPOS>MOLECULE
*****
 46 53 0 0 0
SMALL
GASTEIGER

@<TRIPOS>ATOM
      1 SI         -2.4410    4.1236    1.2638 Si      1  UNL1        0.0000
      2 C          -3.7887    3.0064    0.6448 C.2     1  UNL1        0.0000
      3 C          -3.2985    1.7973    0.3082 C.ar    1  UNL1        0.0000
      4 C          -4.0700    0.6407   -0.0038 C.ar    1  UNL1        0.0000
      5 C          -5.4448    0.4643   -0.2623 C.ar    1  UNL1        0.0000
      6 C          -5.6253   -0.8766   -0.5264 C.ar    1  UNL1        0.0000
      7 N          -4.4035   -1.5000   -0.4326 N.ar    1  UNL1        0.0000
      8 C          -3.4452   -0.5936   -0.0581 C.ar    1  UNL1        0.0000
      9 C          -2.0087   -0.7959    0.0906 C.ar    1  UNL1        0.0000
     10 C          -1.3335   -2.0165    0.1821 C.ar    1  UNL1        0.0000
     11 C          -1.8644   -3.2754    0.3464 C.ar    1  UNL1        0.0000
     12 N          -0.8152   -4.1656    0.4157 N.ar    1  UNL1        0.0000
     13 C           0.3803   -3.4940    0.3170 C.ar    1  UNL1        0.0000
     14 C           0.0938   -2.1541    0.1904 C.ar    1  UNL1        0.0000
     15 C           1.0294   -1.1017    0.0483 C.ar    1  UNL1        0.0000
     16 C           2.4690   -1.3170   -0.0041 C.ar    1  UNL1        0.0000
     17 C           3.4115   -0.2949   -0.2300 C.ar    1  UNL1        0.0000
     18 C           4.8428   -0.5340   -0.2912 C.ar    1  UNL1        0.0000
     19 N           5.3944   -1.5602   -0.9102 N.ar    1  UNL1        0.0000
     20 C           6.7647   -1.5335   -0.7448 C.ar    1  UNL1        0.0000
     21 C           7.2493   -0.5040    0.0299 C.ar    1  UNL1        0.0000
     22 S           5.9483    0.4648    0.5777 S.2     1  UNL1        0.0000
     23 C           2.7632    0.9118   -0.4889 C.ar    1  UNL1        0.0000
     24 C           3.3240    2.0789   -0.9459 C.ar    1  UNL1        0.0000
     25 O           2.3471    2.9911   -1.2089 O.2     1  UNL1        0.0000
     26 C           1.1514    2.3993   -0.9289 C.ar    1  UNL1        0.0000
     27 C           1.3419    1.1377   -0.4167 C.ar    1  UNL1        0.0000
     28 C           0.3380    0.1842   -0.0605 C.ar    1  UNL1        0.0000
     29 C          -1.1221    0.3388    0.1136 C.ar    1  UNL1        0.0000
     30 C          -1.8124    1.6482    0.4218 C.ar    1  UNL1        0.0000
     31 C          -1.2337    2.7173    1.0129 C.2     1  UNL1        0.0000
     32 H          -2.6028    4.4817    2.6935 H       1  UNL1        0.0000
     33 H          -2.1735    5.2585    0.3478 H       1  UNL1        0.0000
     34 H          -4.8259    3.2980    0.6792 H       1  UNL1        0.0000
     35 H          -6.2163    1.2221   -0.2774 H       1  UNL1        0.0000
     36 H          -6.5104   -1.4379   -0.7929 H       1  UNL1        0.0000
     37 H          -4.2366   -2.4715   -0.6479 H       1  UNL1        0.0000
     38 H          -2.8726   -3.6433    0.4580 H       1  UNL1        0.0000
     39 H          -0.9089   -5.1658    0.5393 H       1  UNL1        0.0000
     40 H           1.3112   -4.0428    0.3533 H       1  UNL1        0.0000
     41 H           2.8518   -2.3301    0.1218 H       1  UNL1        0.0000
     42 H           7.3691   -2.3015   -1.2120 H       1  UNL1        0.0000
     43 H           8.2727   -0.2871    0.2993 H       1  UNL1        0.0000
     44 H           4.3268    2.4075   -1.1799 H       1  UNL1        0.0000
     45 H           0.2870    2.9987   -1.1750 H       1  UNL1        0.0000
     46 H          -0.2140    2.8260    1.3433 H       1  UNL1        0.0000
@<TRIPOS>BOND
     1     1     2    1
     2     2     3    2
     3     3     4   ar
     4     4     5   ar
     5     5     6   ar
     6     6     7   ar
     7     7     8   ar
     8     8     9   ar
     9     9    10   ar
    10    10    11   ar
    11    11    12   ar
    12    12    13   ar
    13    13    14   ar
    14    14    15   ar
    15    15    16   ar
    16    16    17   ar
    17    17    18    1
    18    18    19   ar
    19    19    20   ar
    20    20    21   ar
    21    21    22   ar
    22    17    23   ar
    23    23    24   ar
    24    24    25   ar
    25    25    26   ar
    26    26    27   ar
    27    27    28   ar
    28    28    29   ar
    29    29    30   ar
    30    30    31    2
    31    31     1    1
    32    30     3   ar
    33     8     4   ar
    34    29     9   ar
    35    14    10   ar
    36    28    15   ar
    37    22    18   ar
    38    27    23   ar
    39     1    32    1
    40     1    33    1
    41     2    34    1
    42     5    35    1
    43     6    36    1
    44     7    37    1
    45    11    38    1
    46    12    39    1
    47    13    40    1
    48    16    41    1
    49    20    42    1
    50    21    43    1
    51    24    44    1
    52    26    45    1
    53    31    46    1
