@<TRIPOS>MOLECULE
*****
 30 33 0 0 0
SMALL
GASTEIGER

@<TRIPOS>ATOM
      1 C          -5.3685    0.5702   -0.3123 C.ar    1  UNL1       -0.0611
      2 C          -5.2006   -0.8046   -0.1591 C.ar    1  UNL1       -0.0598
      3 C          -3.9244   -1.3714   -0.0873 C.ar    1  UNL1       -0.0378
      4 C          -2.8278   -0.5060   -0.1751 C.ar    1  UNL1        0.0469
      5 N          -1.4789   -0.7732   -0.1360 N.ar    1  UNL1       -0.3541
      6 C          -0.7302    0.3813   -0.2583 C.ar    1  UNL1        0.0490
      7 C           0.7400    0.4087   -0.2508 C.ar    1  UNL1        0.0185
      8 C           1.4448    1.6023   -0.3777 C.ar    1  UNL1        0.0375
      9 N           2.7962    1.7068   -0.3796 N.ar    1  UNL1       -0.2528
     10 C           3.5004    0.5678   -0.2487 C.ar    1  UNL1        0.0892
     11 C           4.8858    0.6078   -0.2432 C.ar    1  UNL1       -0.0328
     12 C           5.6349   -0.5585   -0.1090 C.ar    1  UNL1       -0.0415
     13 C           4.9544   -1.7532    0.0182 C.ar    1  UNL1        0.0284
     14 N           3.6080   -1.8470    0.0190 N.ar    1  UNL1       -0.2534
     15 C           2.9044   -0.7024   -0.1126 C.ar    1  UNL1        0.0898
     16 C           1.5164   -0.7482   -0.1174 C.ar    1  UNL1       -0.0237
     17 C          -1.6524    1.4118   -0.3788 C.ar    1  UNL1       -0.0286
     18 C          -2.9652    0.8688   -0.3281 C.ar    1  UNL1        0.0003
     19 C          -4.2590    1.4194   -0.3982 C.ar    1  UNL1       -0.0526
     20 H          -6.3701    0.9896   -0.3658 H       1  UNL1        0.0618
     21 H          -6.0754   -1.4478   -0.0942 H       1  UNL1        0.0618
     22 H          -3.7972   -2.4423    0.0320 H       1  UNL1        0.0638
     23 H          -1.1026   -1.7032   -0.0304 H       1  UNL1        0.1659
     24 H           0.9344    2.5552   -0.4867 H       1  UNL1        0.0836
     25 H           5.3875    1.5664   -0.3456 H       1  UNL1        0.0640
     26 H           6.7185   -0.5297   -0.1044 H       1  UNL1        0.0633
     27 H           5.4864   -2.6943    0.1260 H       1  UNL1        0.0830
     28 H           1.0591   -1.7265   -0.0126 H       1  UNL1        0.0646
     29 H          -1.4210    2.4625   -0.4933 H       1  UNL1        0.0645
     30 H          -4.3978    2.4896   -0.5176 H       1  UNL1        0.0624
@<TRIPOS>BOND
     1     1     2   ar
     2     2     3   ar
     3     3     4   ar
     4     4     5   ar
     5     5     6   ar
     6     6     7    1
     7     7     8   ar
     8     8     9   ar
     9     9    10   ar
    10    10    11   ar
    11    11    12   ar
    12    12    13   ar
    13    13    14   ar
    14    14    15   ar
    15    15    16   ar
    16     6    17   ar
    17    17    18   ar
    18    18    19   ar
    19    19     1   ar
    20    18     4   ar
    21    16     7   ar
    22    15    10   ar
    23     1    20    1
    24     2    21    1
    25     3    22    1
    26     5    23    1
    27     8    24    1
    28    11    25    1
    29    12    26    1
    30    13    27    1
    31    16    28    1
    32    17    29    1
    33    19    30    1
