@<TRIPOS>MOLECULE
*****
 28 31 0 0 0
SMALL
GASTEIGER

@<TRIPOS>ATOM
      1 C           4.8151    1.4013   -0.4917 C.ar    1  UNL1       -0.0611
      2 C           5.0852    0.1383    0.0315 C.ar    1  UNL1       -0.0598
      3 C           4.0497   -0.7367    0.3748 C.ar    1  UNL1       -0.0378
      4 C           2.7369   -0.2947    0.1725 C.ar    1  UNL1        0.0469
      5 N           1.5382   -0.9276    0.4138 N.ar    1  UNL1       -0.3529
      6 C           0.4710   -0.1252    0.0673 C.ar    1  UNL1        0.0675
      7 C          -0.9352   -0.5031    0.2005 C.ar    1  UNL1        0.1077
      8 C          -1.3783   -1.7187    0.6929 C.ar    1  UNL1        0.0575
      9 N          -2.6892   -2.0328    0.8015 N.ar    1  UNL1       -0.2309
     10 C          -3.5649   -1.1016    0.4051 C.ar    1  UNL1        0.1977
     11 N          -4.8711   -1.3846    0.5008 N.ar    1  UNL1       -0.2316
     12 C          -5.7334   -0.4307    0.0954 C.ar    1  UNL1        0.0482
     13 C          -5.3042    0.7819   -0.3961 C.ar    1  UNL1        0.0482
     14 N          -3.9956    1.0888   -0.5017 N.ar    1  UNL1       -0.2316
     15 C          -3.1174    0.1569   -0.1050 C.ar    1  UNL1        0.1983
     16 N          -1.8127    0.4412   -0.2013 N.ar    1  UNL1       -0.2217
     17 C           1.0232    1.0550   -0.4090 C.ar    1  UNL1       -0.0271
     18 C           2.4383    0.9606   -0.3480 C.ar    1  UNL1        0.0003
     19 C           3.4956    1.8256   -0.6867 C.ar    1  UNL1       -0.0526
     20 H           5.6353    2.0658   -0.7518 H       1  UNL1        0.0618
     21 H           6.1176   -0.1723    0.1753 H       1  UNL1        0.0618
     22 H           4.2653   -1.7190    0.7818 H       1  UNL1        0.0638
     23 H           1.4766   -1.8594    0.7957 H       1  UNL1        0.1659
     24 H          -0.7021   -2.4975    1.0236 H       1  UNL1        0.0853
     25 H          -6.7870   -0.6731    0.1784 H       1  UNL1        0.0846
     26 H          -6.0013    1.5463   -0.7211 H       1  UNL1        0.0846
     27 H           0.4528    1.9040   -0.7668 H       1  UNL1        0.0645
     28 H           3.2915    2.8111   -1.0949 H       1  UNL1        0.0624
@<TRIPOS>BOND
     1     1     2   ar
     2     2     3   ar
     3     3     4   ar
     4     4     5   ar
     5     5     6   ar
     6     6     7    1
     7     7     8   ar
     8     8     9   ar
     9     9    10   ar
    10    10    11   ar
    11    11    12   ar
    12    12    13   ar
    13    13    14   ar
    14    14    15   ar
    15    15    16   ar
    16     6    17   ar
    17    17    18   ar
    18    18    19   ar
    19    19     1   ar
    20    18     4   ar
    21    16     7   ar
    22    15    10   ar
    23     1    20    1
    24     2    21    1
    25     3    22    1
    26     5    23    1
    27     8    24    1
    28    12    25    1
    29    13    26    1
    30    17    27    1
    31    19    28    1
