@<TRIPOS>MOLECULE
*****
 22 24 0 0 0
SMALL
GASTEIGER

@<TRIPOS>ATOM
      1 C          -3.5384   -0.7118    0.2723 C.ar    1  UNL1       -0.0611
      2 C          -3.5377    0.6445   -0.0471 C.ar    1  UNL1       -0.0598
      3 C          -2.3404    1.3367   -0.2529 C.ar    1  UNL1       -0.0378
      4 C          -1.1472    0.6160   -0.1259 C.ar    1  UNL1        0.0469
      5 N           0.1594    1.0257   -0.2691 N.ar    1  UNL1       -0.3540
      6 C           1.0139   -0.0231   -0.0527 C.ar    1  UNL1        0.0521
      7 C           2.5537    0.0546   -0.1260 C.ar    1  UNL1        0.0569
      8 C           3.3797    1.1547   -0.4146 C.ar    1  UNL1        0.0791
      9 N           4.6755    0.8296   -0.3844 N.ar    1  UNL1       -0.0862
     10 O           4.7040   -0.5217   -0.0672 O.2     1  UNL1       -0.3623
     11 C           3.4326   -0.9746    0.0849 C.ar    1  UNL1        0.1333
     12 C           0.2506   -1.1327    0.2359 C.ar    1  UNL1       -0.0285
     13 C          -1.1172   -0.7415    0.1927 C.ar    1  UNL1        0.0003
     14 C          -2.3357   -1.4173    0.3954 C.ar    1  UNL1       -0.0526
     15 H          -4.4818   -1.2295    0.4279 H       1  UNL1        0.0618
     16 H          -4.4835    1.1742   -0.1380 H       1  UNL1        0.0618
     17 H          -2.3450    2.3929   -0.5015 H       1  UNL1        0.0638
     18 H           0.4363    1.9682   -0.5009 H       1  UNL1        0.1659
     19 H           3.1099    2.1746   -0.6451 H       1  UNL1        0.0870
     20 H           3.3376   -2.0202    0.3345 H       1  UNL1        0.1064
     21 H           0.6198   -2.1253    0.4564 H       1  UNL1        0.0645
     22 H          -2.3458   -2.4742    0.6446 H       1  UNL1        0.0624
@<TRIPOS>BOND
     1     1     2   ar
     2     2     3   ar
     3     3     4   ar
     4     4     5   ar
     5     5     6   ar
     6     6     7    1
     7     7     8   ar
     8     8     9   ar
     9     9    10   ar
    10    10    11   ar
    11     6    12   ar
    12    12    13   ar
    13    13    14   ar
    14    14     1   ar
    15    13     4   ar
    16    11     7   ar
    17     1    15    1
    18     2    16    1
    19     3    17    1
    20     5    18    1
    21     8    19    1
    22    11    20    1
    23    12    21    1
    24    14    22    1
