@<TRIPOS>MOLECULE
*****
 22 24 0 0 0
SMALL
GASTEIGER

@<TRIPOS>ATOM
      1 C          -3.6531   -0.4823   -0.3844 C.ar    1  UNL1       -0.0611
      2 C          -3.5711    0.2668    0.7878 C.ar    1  UNL1       -0.0598
      3 C          -2.3348    0.6724    1.2999 C.ar    1  UNL1       -0.0378
      4 C          -1.1875    0.2978    0.5914 C.ar    1  UNL1        0.0469
      5 N           0.1399    0.5484    0.8499 N.ar    1  UNL1       -0.3529
      6 C           0.9261   -0.0145   -0.1181 C.ar    1  UNL1        0.0665
      7 C           2.4706    0.0909   -0.1109 C.ar    1  UNL1        0.0942
      8 C           3.2921   -0.4632   -1.0687 C.ar    1  UNL1        0.0045
      9 S           4.9304   -0.1176   -0.6924 S.2     1  UNL1       -0.0832
     10 C           4.4063    0.7334    0.7025 C.ar    1  UNL1        0.0654
     11 N           3.1077    0.7774    0.9055 N.ar    1  UNL1       -0.2460
     12 C           0.1038   -0.6429   -1.0239 C.ar    1  UNL1       -0.0272
     13 C          -1.2383   -0.4521   -0.5852 C.ar    1  UNL1        0.0003
     14 C          -2.4954   -0.8487   -1.0809 C.ar    1  UNL1       -0.0526
     15 H          -4.6256   -0.7864   -0.7636 H       1  UNL1        0.0618
     16 H          -4.4826    0.5412    1.3140 H       1  UNL1        0.0618
     17 H          -2.2738    1.2557    2.2128 H       1  UNL1        0.0638
     18 H           0.5018    1.0708    1.6359 H       1  UNL1        0.1659
     19 H           3.0256   -1.0361   -1.9441 H       1  UNL1        0.0716
     20 H           5.1125    1.2050    1.3732 H       1  UNL1        0.0907
     21 H           0.4144   -1.1832   -1.9074 H       1  UNL1        0.0645
     22 H          -2.5689   -1.4325   -1.9934 H       1  UNL1        0.0624
@<TRIPOS>BOND
     1     1     2   ar
     2     2     3   ar
     3     3     4   ar
     4     4     5   ar
     5     5     6   ar
     6     6     7    1
     7     7     8   ar
     8     8     9   ar
     9     9    10   ar
    10    10    11   ar
    11     6    12   ar
    12    12    13   ar
    13    13    14   ar
    14    14     1   ar
    15    13     4   ar
    16    11     7   ar
    17     1    15    1
    18     2    16    1
    19     3    17    1
    20     5    18    1
    21     8    19    1
    22    10    20    1
    23    12    21    1
    24    14    22    1
