@<TRIPOS>MOLECULE
*****
 28 31 0 0 0
SMALL
GASTEIGER

@<TRIPOS>ATOM
      1 C           5.0966   -0.8904    0.6791 C.ar    1  UNL1       -0.0611
      2 C           5.1176    0.3091   -0.0297 C.ar    1  UNL1       -0.0598
      3 C           3.9310    0.9403   -0.4156 C.ar    1  UNL1       -0.0378
      4 C           2.7261    0.3218   -0.0629 C.ar    1  UNL1        0.0470
      5 N           1.4257    0.7040   -0.3027 N.ar    1  UNL1       -0.3505
      6 C           0.5502   -0.2093    0.2277 C.ar    1  UNL1        0.1030
      7 C          -0.8645   -0.0581    0.1232 C.ar    1  UNL1        0.2450
      8 N          -1.7285   -0.9236    0.6256 N.ar    1  UNL1       -0.2077
      9 C          -2.9535   -0.4003    0.3031 C.ar    1  UNL1        0.1099
     10 C          -4.2509   -0.8602    0.5610 C.ar    1  UNL1       -0.0326
     11 C          -5.3293   -0.0920    0.0954 C.ar    1  UNL1       -0.0595
     12 C          -5.1182    1.1014   -0.6078 C.ar    1  UNL1       -0.0582
     13 C          -3.8264    1.5732   -0.8728 C.ar    1  UNL1       -0.0171
     14 C          -2.7882    0.7831   -0.3947 C.ar    1  UNL1        0.1558
     15 O          -1.4502    1.0123   -0.5158 O.2     1  UNL1       -0.4340
     16 C           1.3006   -1.2021    0.8226 C.ar    1  UNL1       -0.0240
     17 C           2.6743   -0.8786    0.6462 C.ar    1  UNL1        0.0004
     18 C           3.8823   -1.4954    1.0237 C.ar    1  UNL1       -0.0526
     19 H           6.0318   -1.3634    0.9687 H       1  UNL1        0.0618
     20 H           6.0722    0.7626   -0.2875 H       1  UNL1        0.0618
     21 H           3.9519    1.8743   -0.9674 H       1  UNL1        0.0638
     22 H           1.1516    1.5399   -0.7998 H       1  UNL1        0.1660
     23 H          -4.4095   -1.7843    1.1056 H       1  UNL1        0.0640
     24 H          -6.3459   -0.4313    0.2850 H       1  UNL1        0.0618
     25 H          -5.9761    1.6744   -0.9557 H       1  UNL1        0.0619
     26 H          -3.6440    2.4925   -1.4143 H       1  UNL1        0.0655
     27 H           0.8994   -2.0697    1.3312 H       1  UNL1        0.0646
     28 H           3.8740   -2.4303    1.5762 H       1  UNL1        0.0624
@<TRIPOS>BOND
     1     1     2   ar
     2     2     3   ar
     3     3     4   ar
     4     4     5   ar
     5     5     6   ar
     6     6     7    1
     7     7     8   ar
     8     8     9   ar
     9     9    10   ar
    10    10    11   ar
    11    11    12   ar
    12    12    13   ar
    13    13    14   ar
    14    14    15   ar
    15     6    16   ar
    16    16    17   ar
    17    17    18   ar
    18    18     1   ar
    19    17     4   ar
    20    15     7   ar
    21    14     9   ar
    22     1    19    1
    23     2    20    1
    24     3    21    1
    25     5    22    1
    26    10    23    1
    27    11    24    1
    28    12    25    1
    29    13    26    1
    30    16    27    1
    31    18    28    1
