@<TRIPOS>MOLECULE
*****
 21 23 0 0 0
SMALL
GASTEIGER

@<TRIPOS>ATOM
      1 C          -3.4386   -0.9234   -0.0380 C.ar    1  UNL1       -0.0611
      2 C          -3.4665    0.4401    0.2484 C.ar    1  UNL1       -0.0598
      3 C          -2.2844    1.1784    0.3605 C.ar    1  UNL1       -0.0378
      4 C          -1.0764    0.4966    0.1743 C.ar    1  UNL1        0.0470
      5 N           0.2207    0.9538    0.2234 N.ar    1  UNL1       -0.3516
      6 C           1.0910   -0.0717   -0.0226 C.ar    1  UNL1        0.0883
      7 C           2.6258    0.0925   -0.0434 C.ar    1  UNL1        0.2181
      8 N           3.2187    1.3086    0.1898 N.ar    1  UNL1       -0.1929
      9 C           4.4884    1.0068    0.0810 C.ar    1  UNL1        0.2147
     10 O           4.7269   -0.2991   -0.2010 O.2     1  UNL1       -0.3410
     11 N           3.4755   -0.9142   -0.2847 N.ar    1  UNL1       -0.0549
     12 C           0.3579   -1.2158   -0.2358 C.ar    1  UNL1       -0.0255
     13 C          -1.0173   -0.8688   -0.1137 C.ar    1  UNL1        0.0004
     14 C          -2.2216   -1.5904   -0.2214 C.ar    1  UNL1       -0.0526
     15 H          -4.3706   -1.4772   -0.1204 H       1  UNL1        0.0618
     16 H          -4.4230    0.9391    0.3873 H       1  UNL1        0.0618
     17 H          -2.3103    2.2399    0.5837 H       1  UNL1        0.0638
     18 H           0.5005    1.9064    0.4127 H       1  UNL1        0.1660
     19 H           5.3510    1.6475    0.1841 H       1  UNL1        0.1283
     20 H           0.7611   -2.1959   -0.4554 H       1  UNL1        0.0646
     21 H          -2.2088   -2.6531   -0.4444 H       1  UNL1        0.0624
@<TRIPOS>BOND
     1     1     2   ar
     2     2     3   ar
     3     3     4   ar
     4     4     5   ar
     5     5     6   ar
     6     6     7    1
     7     7     8   ar
     8     8     9   ar
     9     9    10   ar
    10    10    11   ar
    11     6    12   ar
    12    12    13   ar
    13    13    14   ar
    14    14     1   ar
    15    13     4   ar
    16    11     7   ar
    17     1    15    1
    18     2    16    1
    19     3    17    1
    20     5    18    1
    21     9    19    1
    22    12    20    1
    23    14    21    1
