@<TRIPOS>MOLECULE
*****
 40 45 0 0 0
SMALL
GASTEIGER

@<TRIPOS>ATOM
      1 C          -7.1452    0.1395   -0.7469 C.ar    1  UNL1       -0.0598
      2 C          -6.7616   -1.1768   -0.4905 C.ar    1  UNL1       -0.0610
      3 C          -5.4260   -1.4938   -0.2219 C.ar    1  UNL1       -0.0490
      4 C          -4.4780   -0.4593   -0.2158 C.ar    1  UNL1        0.0426
      5 C          -4.8753    0.8615   -0.4752 C.ar    1  UNL1        0.0505
      6 C          -6.2115    1.1824   -0.7443 C.ar    1  UNL1       -0.0377
      7 N          -3.7662    1.6903   -0.4122 N.ar    1  UNL1       -0.3511
      8 C          -2.6711    0.9230   -0.1179 C.ar    1  UNL1        0.0954
      9 C          -1.2794    0.9684    0.1066 C.ar    1  UNL1        0.0623
     10 C          -0.2645    1.9163    0.1362 C.ar    1  UNL1        0.0410
     11 N           1.0083    1.5293    0.4034 N.ar    1  UNL1       -0.2541
     12 C           1.2869    0.2183    0.6412 C.ar    1  UNL1        0.0751
     13 C           0.3273   -0.7907    0.6324 C.ar    1  UNL1        0.0074
     14 C          -0.9624   -0.3615    0.3545 C.ar    1  UNL1        0.1412
     15 O          -2.0544   -1.1835    0.2936 O.2     1  UNL1       -0.4525
     16 C          -3.0913   -0.3541   -0.0005 C.ar    1  UNL1        0.1614
     17 C           2.6970   -0.0859    0.9300 C.ar    1  UNL1        0.0082
     18 C           3.0624   -0.3557    2.2635 C.ar    1  UNL1       -0.0520
     19 C           4.3752   -0.6692    2.5998 C.ar    1  UNL1       -0.0605
     20 C           5.3486   -0.7202    1.6069 C.ar    1  UNL1       -0.0540
     21 C           5.0270   -0.4550    0.2677 C.ar    1  UNL1       -0.0173
     22 C           6.0250   -0.5129   -0.7197 C.ar    1  UNL1       -0.0540
     23 C           5.7292   -0.2540   -2.0571 C.ar    1  UNL1       -0.0612
     24 C           4.4303    0.0685   -2.4251 C.ar    1  UNL1       -0.0611
     25 C           3.4271    0.1300   -1.4552 C.ar    1  UNL1       -0.0534
     26 C           3.6928   -0.1292   -0.0893 C.ar    1  UNL1       -0.0087
     27 H          -8.1903    0.3607   -0.9531 H       1  UNL1        0.0618
     28 H          -7.5081   -1.9676   -0.4989 H       1  UNL1        0.0618
     29 H          -5.1284   -2.5189   -0.0225 H       1  UNL1        0.0625
     30 H          -6.5218    2.2030   -0.9453 H       1  UNL1        0.0638
     31 H          -3.7425    2.6914   -0.5546 H       1  UNL1        0.1660
     32 H          -0.4195    2.9733   -0.0437 H       1  UNL1        0.0837
     33 H           0.5595   -1.8296    0.8205 H       1  UNL1        0.0676
     34 H           2.3122   -0.3110    3.0512 H       1  UNL1        0.0624
     35 H           4.6402   -0.8705    3.6343 H       1  UNL1        0.0618
     36 H           6.3702   -0.9671    1.8887 H       1  UNL1        0.0624
     37 H           7.0497   -0.7613   -0.4515 H       1  UNL1        0.0624
     38 H           6.5136   -0.3014   -2.8074 H       1  UNL1        0.0618
     39 H           4.1921    0.2771   -3.4646 H       1  UNL1        0.0618
     40 H           2.4226    0.3961   -1.7789 H       1  UNL1        0.0624
@<TRIPOS>BOND
     1     1     2   ar
     2     2     3   ar
     3     3     4   ar
     4     4     5   ar
     5     5     6   ar
     6     5     7   ar
     7     7     8   ar
     8     8     9   ar
     9     9    10   ar
    10    10    11   ar
    11    11    12   ar
    12    12    13   ar
    13    13    14   ar
    14    14    15   ar
    15    15    16   ar
    16    12    17    1
    17    17    18   ar
    18    18    19   ar
    19    19    20   ar
    20    20    21   ar
    21    21    22   ar
    22    22    23   ar
    23    23    24   ar
    24    24    25   ar
    25    25    26   ar
    26     6     1   ar
    27    16     8   ar
    28    26    17   ar
    29    16     4   ar
    30    26    21   ar
    31    14     9   ar
    32     1    27    1
    33     2    28    1
    34     3    29    1
    35     6    30    1
    36     7    31    1
    37    10    32    1
    38    13    33    1
    39    18    34    1
    40    19    35    1
    41    20    36    1
    42    22    37    1
    43    23    38    1
    44    24    39    1
    45    25    40    1
