@<TRIPOS>MOLECULE
*****
 22 24 0 0 0
SMALL
GASTEIGER

@<TRIPOS>ATOM
      1 C           3.4012   -0.4411    0.3195 C.ar    1  UNL1       -0.0598
      2 C           3.1292    0.8382   -0.1596 C.ar    1  UNL1       -0.0611
      3 C           1.8099    1.2540   -0.3727 C.ar    1  UNL1       -0.0520
      4 C           0.7491    0.3658   -0.0984 C.ar    1  UNL1        0.0074
      5 C           1.0549   -0.9076    0.3802 C.ar    1  UNL1        0.0475
      6 C           2.3682   -1.3406    0.5993 C.ar    1  UNL1       -0.0378
      7 N          -0.1385   -1.5655    0.5643 N.ar    1  UNL1       -0.3541
      8 C          -1.2028   -0.7647    0.2227 C.ar    1  UNL1        0.0475
      9 C          -2.5777   -1.0274    0.2543 C.ar    1  UNL1       -0.0378
     10 C          -3.4410   -0.0078   -0.1577 C.ar    1  UNL1       -0.0598
     11 C          -2.9469    1.2230   -0.5834 C.ar    1  UNL1       -0.0611
     12 C          -1.5691    1.4680   -0.6084 C.ar    1  UNL1       -0.0520
     13 C          -0.6764    0.4560   -0.1978 C.ar    1  UNL1        0.0074
     14 H           4.4331   -0.7460    0.4789 H       1  UNL1        0.0618
     15 H           3.9476    1.5220   -0.3707 H       1  UNL1        0.0618
     16 H           1.6063    2.2529   -0.7464 H       1  UNL1        0.0624
     17 H           2.5842   -2.3362    0.9724 H       1  UNL1        0.0638
     18 H          -0.2222   -2.5113    0.9052 H       1  UNL1        0.1659
     19 H          -2.9664   -1.9848    0.5852 H       1  UNL1        0.0638
     20 H          -4.5149   -0.1794   -0.1453 H       1  UNL1        0.0618
     21 H          -3.6358    2.0022   -0.8997 H       1  UNL1        0.0618
     22 H          -1.1920    2.4301   -0.9416 H       1  UNL1        0.0624
@<TRIPOS>BOND
     1     1     2   ar
     2     2     3   ar
     3     3     4   ar
     4     4     5   ar
     5     5     6   ar
     6     5     7   ar
     7     7     8   ar
     8     8     9   ar
     9     9    10   ar
    10    10    11   ar
    11    11    12   ar
    12    12    13   ar
    13     6     1   ar
    14    13     8   ar
    15    13     4   ar
    16     1    14    1
    17     2    15    1
    18     3    16    1
    19     6    17    1
    20     7    18    1
    21     9    19    1
    22    10    20    1
    23    11    21    1
    24    12    22    1
