@<TRIPOS>MOLECULE
*****
 62 69 0 0 0
SMALL
GASTEIGER

@<TRIPOS>ATOM
      1 C           7.8304   -2.2940   -2.0960 C.ar    1  UNL1       -0.0611
      2 C           6.5029   -2.6060   -2.3549 C.ar    1  UNL1       -0.0598
      3 C           5.4672   -1.8811   -1.7578 C.ar    1  UNL1       -0.0372
      4 C           5.7906   -0.8352   -0.8671 C.ar    1  UNL1        0.0549
      5 C           7.1223   -0.4850   -0.6308 C.ar    1  UNL1        0.0079
      6 C           8.1509   -1.2347   -1.2441 C.ar    1  UNL1       -0.0520
      7 C           7.1287    0.6458    0.2368 C.ar    1  UNL1        0.0079
      8 C           8.1662    1.4189    0.8042 C.ar    1  UNL1       -0.0520
      9 C           7.8599    2.4711    1.6701 C.ar    1  UNL1       -0.0611
     10 C           6.5385    2.7530    1.9878 C.ar    1  UNL1       -0.0598
     11 C           5.4941    2.0045    1.4369 C.ar    1  UNL1       -0.0372
     12 C           5.8013    0.9658    0.5322 C.ar    1  UNL1        0.0549
     13 N           4.9884    0.0562   -0.1496 N.ar    1  UNL1       -0.3087
     14 C           3.5614    0.0401   -0.1181 C.ar    1  UNL1        0.0472
     15 C           2.8416    1.2338   -0.2278 C.ar    1  UNL1       -0.0373
     16 C           1.4429    1.2133   -0.1981 C.ar    1  UNL1       -0.0521
     17 C           0.7358    0.0084   -0.0562 C.ar    1  UNL1       -0.0178
     18 C          -0.7358   -0.0082   -0.0241 C.ar    1  UNL1       -0.0178
     19 C          -1.4488    0.7927    0.8827 C.ar    1  UNL1       -0.0521
     20 C          -2.8476    0.7811    0.9156 C.ar    1  UNL1       -0.0373
     21 C          -3.5614   -0.0401    0.0375 C.ar    1  UNL1        0.0472
     22 N          -4.9884   -0.0562    0.0687 N.ar    1  UNL1       -0.3087
     23 C          -5.7848   -1.2030    0.0091 C.ar    1  UNL1        0.0549
     24 C          -5.4544   -2.5748   -0.0218 C.ar    1  UNL1       -0.0372
     25 C          -6.4852   -3.5184   -0.0609 C.ar    1  UNL1       -0.0598
     26 C          -7.8148   -3.1199   -0.0493 C.ar    1  UNL1       -0.0611
     27 C          -8.1422   -1.7639    0.0194 C.ar    1  UNL1       -0.0520
     28 C          -7.1186   -0.7911    0.0629 C.ar    1  UNL1        0.0079
     29 C          -7.1324    0.6303    0.1682 C.ar    1  UNL1        0.0079
     30 C          -8.1749    1.5797    0.2570 C.ar    1  UNL1       -0.0520
     31 C          -7.8755    2.9428    0.3119 C.ar    1  UNL1       -0.0611
     32 C          -6.5561    3.3713    0.2654 C.ar    1  UNL1       -0.0598
     33 C          -5.5068    2.4512    0.1807 C.ar    1  UNL1       -0.0372
     34 C          -5.8071    1.0723    0.1637 C.ar    1  UNL1        0.0549
     35 C          -2.8682   -0.8454   -0.8713 C.ar    1  UNL1       -0.0373
     36 C          -1.4694   -0.8254   -0.8993 C.ar    1  UNL1       -0.0521
     37 C           1.4753   -1.1803    0.0541 C.ar    1  UNL1       -0.0521
     38 C           2.8741   -1.1693    0.0225 C.ar    1  UNL1       -0.0373
     39 H           8.6253   -2.8648   -2.5691 H       1  UNL1        0.0618
     40 H           6.2633   -3.4179   -3.0379 H       1  UNL1        0.0618
     41 H           4.4377   -2.1225   -2.0034 H       1  UNL1        0.0638
     42 H           9.1920   -0.9829   -1.0629 H       1  UNL1        0.0624
     43 H           9.2037    1.1907    0.5767 H       1  UNL1        0.0624
     44 H           8.6619    3.0600    2.1077 H       1  UNL1        0.0618
     45 H           6.3111    3.5595    2.6812 H       1  UNL1        0.0618
     46 H           4.4712    2.2226    1.7280 H       1  UNL1        0.0638
     47 H           3.3451    2.1851   -0.3834 H       1  UNL1        0.0638
     48 H           0.9031    2.1523   -0.3083 H       1  UNL1        0.0624
     49 H          -0.9137    1.4225    1.5913 H       1  UNL1        0.0624
     50 H          -3.3557    1.3847    1.6641 H       1  UNL1        0.0638
     51 H          -4.4232   -2.9132    0.0029 H       1  UNL1        0.0638
     52 H          -6.2403   -4.5777   -0.0912 H       1  UNL1        0.0618
     53 H          -8.6060   -3.8648   -0.0779 H       1  UNL1        0.0618
     54 H          -9.1850   -1.4606    0.0495 H       1  UNL1        0.0624
     55 H          -9.2108    1.2528    0.2726 H       1  UNL1        0.0624
     56 H          -8.6813    3.6695    0.3755 H       1  UNL1        0.0618
     57 H          -6.3340    4.4358    0.2853 H       1  UNL1        0.0618
     58 H          -4.4857    2.8128    0.1109 H       1  UNL1        0.0638
     59 H          -3.3947   -1.4606   -1.5972 H       1  UNL1        0.0638
     60 H          -0.9516   -1.4434   -1.6308 H       1  UNL1        0.0624
     61 H           0.9621   -2.1311    0.1874 H       1  UNL1        0.0624
     62 H           3.4052   -2.1090    0.1554 H       1  UNL1        0.0638
@<TRIPOS>BOND
     1     1     2   ar
     2     2     3   ar
     3     3     4   ar
     4     4     5   ar
     5     5     6   ar
     6     5     7   ar
     7     7     8   ar
     8     8     9   ar
     9     9    10   ar
    10    10    11   ar
    11    11    12   ar
    12    12    13   ar
    13    13    14    1
    14    14    15   ar
    15    15    16   ar
    16    16    17   ar
    17    17    18    1
    18    18    19   ar
    19    19    20   ar
    20    20    21   ar
    21    21    22    1
    22    22    23   ar
    23    23    24   ar
    24    24    25   ar
    25    25    26   ar
    26    26    27   ar
    27    27    28   ar
    28    28    29   ar
    29    29    30   ar
    30    30    31   ar
    31    31    32   ar
    32    32    33   ar
    33    33    34   ar
    34    21    35   ar
    35    35    36   ar
    36    17    37   ar
    37    37    38   ar
    38     6     1   ar
    39    12     7   ar
    40    38    14   ar
    41    13     4   ar
    42    36    18   ar
    43    34    22   ar
    44    28    23   ar
    45    34    29   ar
    46     1    39    1
    47     2    40    1
    48     3    41    1
    49     6    42    1
    50     8    43    1
    51     9    44    1
    52    10    45    1
    53    11    46    1
    54    15    47    1
    55    16    48    1
    56    19    49    1
    57    20    50    1
    58    24    51    1
    59    25    52    1
    60    26    53    1
    61    27    54    1
    62    30    55    1
    63    31    56    1
    64    32    57    1
    65    33    58    1
    66    35    59    1
    67    36    60    1
    68    37    61    1
    69    38    62    1
