@<TRIPOS>MOLECULE
*****
 68 77 0 0 0
SMALL
GASTEIGER

@<TRIPOS>ATOM
      1 C          -7.1983   -1.7169    1.2971 C.ar    1  UNL1       -0.0611
      2 C          -6.7899   -0.4400    1.6569 C.ar    1  UNL1       -0.0598
      3 C          -5.6029    0.1009    1.1537 C.ar    1  UNL1       -0.0372
      4 C          -4.8310   -0.6647    0.2536 C.ar    1  UNL1        0.0549
      5 C          -5.2107   -1.9661   -0.0843 C.ar    1  UNL1        0.0079
      6 C          -6.4159   -2.4890    0.4356 C.ar    1  UNL1       -0.0520
      7 C          -4.2040   -2.5075   -0.9359 C.ar    1  UNL1        0.0079
      8 C          -4.0523   -3.7589   -1.5741 C.ar    1  UNL1       -0.0520
      9 C          -2.9502   -3.9930   -2.3996 C.ar    1  UNL1       -0.0611
     10 C          -2.0090   -2.9946   -2.6094 C.ar    1  UNL1       -0.0598
     11 C          -2.1360   -1.7488   -1.9882 C.ar    1  UNL1       -0.0372
     12 C          -3.2279   -1.5257   -1.1216 C.ar    1  UNL1        0.0549
     13 N          -3.6157   -0.4035   -0.3845 N.ar    1  UNL1       -0.3087
     14 C          -2.8795    0.8162   -0.2918 C.ar    1  UNL1        0.0478
     15 C          -3.5302    2.0377   -0.3810 C.ar    1  UNL1       -0.0372
     16 C          -2.7868    3.2130   -0.2856 C.ar    1  UNL1       -0.0500
     17 C          -1.3840    3.2126   -0.1005 C.ar    1  UNL1        0.0103
     18 C          -0.7044    1.9718   -0.0138 C.ar    1  UNL1       -0.0060
     19 C          -1.4898    0.7891   -0.1071 C.ar    1  UNL1       -0.0295
     20 C           0.7151    1.9664    0.1695 C.ar    1  UNL1       -0.0060
     21 C           1.4933    0.7780    0.2487 C.ar    1  UNL1       -0.0295
     22 C           2.8831    0.7944    0.4348 C.ar    1  UNL1        0.0478
     23 N           3.6124   -0.4306    0.5121 N.ar    1  UNL1       -0.3087
     24 C           3.2169   -1.5613    1.2321 C.ar    1  UNL1        0.0549
     25 C           2.1215   -1.7913    2.0924 C.ar    1  UNL1       -0.0372
     26 C           1.9868   -3.0452    2.6956 C.ar    1  UNL1       -0.0598
     27 C           2.9238   -4.0450    2.4744 C.ar    1  UNL1       -0.0611
     28 C           4.0291   -3.8048    1.6551 C.ar    1  UNL1       -0.0520
     29 C           4.1886   -2.5452    1.0352 C.ar    1  UNL1        0.0079
     30 C           5.2006   -1.9968    0.1944 C.ar    1  UNL1        0.0079
     31 C           6.4049   -2.5183   -0.3290 C.ar    1  UNL1       -0.0520
     32 C           7.1936   -1.7381   -1.1773 C.ar    1  UNL1       -0.0611
     33 C           6.7922   -0.4546   -1.5209 C.ar    1  UNL1       -0.0598
     34 C           5.6063    0.0850   -1.0139 C.ar    1  UNL1       -0.0372
     35 C           4.8281   -0.6890   -0.1265 C.ar    1  UNL1        0.0549
     36 C           3.5406    2.0110    0.5402 C.ar    1  UNL1       -0.0372
     37 C           2.8044    3.1918    0.4578 C.ar    1  UNL1       -0.0500
     38 C           1.4020    3.2020    0.2710 C.ar    1  UNL1        0.0103
     39 C           0.7141    4.4250    0.1867 C.ar    1  UNL1        0.0974
     40 N           1.3953    5.5988    0.2845 N.ar    1  UNL1       -0.2513
     41 C           0.6988    6.7477    0.1955 C.ar    1  UNL1        0.0464
     42 C          -0.6587    6.7528    0.0113 C.ar    1  UNL1        0.0464
     43 N          -1.3623    5.6093   -0.0893 N.ar    1  UNL1       -0.2513
     44 C          -0.6885    4.4303   -0.0035 C.ar    1  UNL1        0.0974
     45 H          -8.1224   -2.1253    1.6979 H       1  UNL1        0.0618
     46 H          -7.3947    0.1453    2.3459 H       1  UNL1        0.0618
     47 H          -5.2894    1.0885    1.4775 H       1  UNL1        0.0638
     48 H          -6.7318   -3.4952    0.1745 H       1  UNL1        0.0624
     49 H          -4.7962   -4.5378   -1.4322 H       1  UNL1        0.0624
     50 H          -2.8392   -4.9561   -2.8912 H       1  UNL1        0.0618
     51 H          -1.1662   -3.1789   -3.2720 H       1  UNL1        0.0618
     52 H          -1.4048   -0.9739   -2.1971 H       1  UNL1        0.0638
     53 H          -4.5994    2.1066   -0.5646 H       1  UNL1        0.0638
     54 H          -3.3220    4.1601   -0.3666 H       1  UNL1        0.0625
     55 H          -1.0192   -0.1826    0.0152 H       1  UNL1        0.0644
     56 H           1.0169   -0.1892    0.1137 H       1  UNL1        0.0644
     57 H           1.3935   -1.0159    2.3104 H       1  UNL1        0.0638
     58 H           1.1412   -3.2347    3.3532 H       1  UNL1        0.0618
     59 H           2.8072   -5.0144    2.9522 H       1  UNL1        0.0618
     60 H           4.7693   -4.5853    1.5039 H       1  UNL1        0.0624
     61 H           6.7150   -3.5295   -0.0809 H       1  UNL1        0.0624
     62 H           8.1171   -2.1453   -1.5808 H       1  UNL1        0.0618
     63 H           7.4018    0.1371   -2.2000 H       1  UNL1        0.0618
     64 H           5.2984    1.0784   -1.3253 H       1  UNL1        0.0638
     65 H           4.6099    2.0713    0.7261 H       1  UNL1        0.0638
     66 H           3.3453    4.1346    0.5507 H       1  UNL1        0.0625
     67 H           1.2709    7.6640    0.2775 H       1  UNL1        0.0845
     68 H          -1.2250    7.6733   -0.0614 H       1  UNL1        0.0845
@<TRIPOS>BOND
     1     1     2   ar
     2     2     3   ar
     3     3     4   ar
     4     4     5   ar
     5     5     6   ar
     6     5     7   ar
     7     7     8   ar
     8     8     9   ar
     9     9    10   ar
    10    10    11   ar
    11    11    12   ar
    12    12    13   ar
    13    13    14    1
    14    14    15   ar
    15    15    16   ar
    16    16    17   ar
    17    17    18   ar
    18    18    19   ar
    19    18    20   ar
    20    20    21   ar
    21    21    22   ar
    22    22    23    1
    23    23    24   ar
    24    24    25   ar
    25    25    26   ar
    26    26    27   ar
    27    27    28   ar
    28    28    29   ar
    29    29    30   ar
    30    30    31   ar
    31    31    32   ar
    32    32    33   ar
    33    33    34   ar
    34    34    35   ar
    35    22    36   ar
    36    36    37   ar
    37    37    38   ar
    38    38    39   ar
    39    39    40   ar
    40    40    41   ar
    41    41    42   ar
    42    42    43   ar
    43    43    44   ar
    44     6     1   ar
    45    12     7   ar
    46    19    14   ar
    47    38    20   ar
    48    44    39   ar
    49    13     4   ar
    50    44    17   ar
    51    35    23   ar
    52    29    24   ar
    53    35    30   ar
    54     1    45    1
    55     2    46    1
    56     3    47    1
    57     6    48    1
    58     8    49    1
    59     9    50    1
    60    10    51    1
    61    11    52    1
    62    15    53    1
    63    16    54    1
    64    19    55    1
    65    21    56    1
    66    25    57    1
    67    26    58    1
    68    27    59    1
    69    28    60    1
    70    31    61    1
    71    32    62    1
    72    33    63    1
    73    34    64    1
    74    36    65    1
    75    37    66    1
    76    41    67    1
    77    42    68    1
