@<TRIPOS>MOLECULE
*****
 38 43 0 0 0
SMALL
GASTEIGER

@<TRIPOS>ATOM
      1 SI         -1.6536   -3.7193    0.1218 Si      1  UNL1        0.0000
      2 C          -3.1495   -2.6196    0.2388 C.2     1  UNL1        0.0000
      3 C          -2.7985   -1.3194    0.2067 C.ar    1  UNL1        0.0000
      4 C          -3.6810   -0.1996    0.2743 C.ar    1  UNL1        0.0000
      5 C          -5.0851   -0.1167    0.3869 C.ar    1  UNL1        0.0000
      6 C          -5.4028    1.2249    0.4085 C.ar    1  UNL1        0.0000
      7 N          -4.2360    1.9451    0.3126 N.ar    1  UNL1        0.0000
      8 C          -3.1677    1.0870    0.2292 C.ar    1  UNL1        0.0000
      9 C          -1.7430    1.4303    0.1137 C.ar    1  UNL1        0.0000
     10 C          -1.2941    2.7557    0.0737 C.ar    1  UNL1        0.0000
     11 C           0.0714    3.0497   -0.0371 C.ar    1  UNL1        0.0000
     12 C           0.9955    1.9928   -0.1085 C.ar    1  UNL1        0.0000
     13 C           2.4097    1.9080   -0.2222 C.ar    1  UNL1        0.0000
     14 C           2.7448    0.5659   -0.2454 C.ar    1  UNL1        0.0000
     15 O           1.5946   -0.1695   -0.1506 O.2     1  UNL1        0.0000
     16 C           0.5316    0.6815   -0.0673 C.ar    1  UNL1        0.0000
     17 C          -0.8230    0.3417    0.0428 C.ar    1  UNL1        0.0000
     18 C          -1.3300   -1.0580    0.0877 C.ar    1  UNL1        0.0000
     19 C          -0.5914   -2.1876    0.0318 C.2     1  UNL1        0.0000
     20 C           4.0306   -0.0535   -0.3474 C.ar    1  UNL1        0.0000
     21 C           4.3463   -1.3987   -0.3693 C.ar    1  UNL1        0.0000
     22 C           5.7531   -1.5142   -0.4824 C.ar    1  UNL1        0.0000
     23 C           6.2639   -0.2373   -0.5269 C.ar    1  UNL1        0.0000
     24 N           5.2128    0.6402   -0.4444 N.ar    1  UNL1        0.0000
     25 H          -1.6272   -4.5082   -1.1339 H       1  UNL1        0.0000
     26 H          -1.4265   -4.5006    1.3619 H       1  UNL1        0.0000
     27 H          -4.1454   -3.0232    0.3201 H       1  UNL1        0.0000
     28 H          -5.7906   -0.9344    0.4460 H       1  UNL1        0.0000
     29 H          -6.3565    1.7295    0.4836 H       1  UNL1        0.0000
     30 H          -4.1811    2.9536    0.3052 H       1  UNL1        0.0000
     31 H          -1.9931    3.5849    0.1276 H       1  UNL1        0.0000
     32 H           0.4072    4.0823   -0.0671 H       1  UNL1        0.0000
     33 H           3.0966    2.7390   -0.2800 H       1  UNL1        0.0000
     34 H           0.4782   -2.2806   -0.0540 H       1  UNL1        0.0000
     35 H           3.6323   -2.2106   -0.3096 H       1  UNL1        0.0000
     36 H           6.3281   -2.4302   -0.5263 H       1  UNL1        0.0000
     37 H           7.2807    0.1225   -0.6098 H       1  UNL1        0.0000
     38 H           5.2983    1.6468   -0.4540 H       1  UNL1        0.0000
@<TRIPOS>BOND
     1     1     2    1
     2     2     3    2
     3     3     4   ar
     4     4     5   ar
     5     5     6   ar
     6     6     7   ar
     7     7     8   ar
     8     8     9   ar
     9     9    10   ar
    10    10    11   ar
    11    11    12   ar
    12    12    13   ar
    13    13    14   ar
    14    14    15   ar
    15    15    16   ar
    16    16    17   ar
    17    17    18   ar
    18    18    19    2
    19    14    20    1
    20    20    21   ar
    21    21    22   ar
    22    22    23   ar
    23    23    24   ar
    24    19     1    1
    25    24    20   ar
    26    18     3   ar
    27     8     4   ar
    28    17     9   ar
    29    16    12   ar
    30     1    25    1
    31     1    26    1
    32     2    27    1
    33     5    28    1
    34     6    29    1
    35     7    30    1
    36    10    31    1
    37    11    32    1
    38    13    33    1
    39    19    34    1
    40    21    35    1
    41    22    36    1
    42    23    37    1
    43    24    38    1
