@<TRIPOS>MOLECULE
*****
 29 32 0 0 0
SMALL
GASTEIGER

@<TRIPOS>ATOM
      1 C          -4.5640    0.3140    0.1455 C.ar    1  UNL1       -0.0612
      2 C          -4.1316   -0.9771    0.4025 C.ar    1  UNL1       -0.0611
      3 C          -2.7622   -1.2594    0.4390 C.ar    1  UNL1       -0.0534
      4 C          -1.7734   -0.2643    0.2205 C.ar    1  UNL1       -0.0101
      5 C          -2.2482    1.0456   -0.0397 C.ar    1  UNL1       -0.0173
      6 C          -3.6266    1.3187   -0.0742 C.ar    1  UNL1       -0.0540
      7 C          -1.3417    2.0799   -0.2649 C.ar    1  UNL1       -0.0534
      8 C           0.0299    1.8417   -0.2374 C.ar    1  UNL1       -0.0514
      9 C           0.5585    0.5653    0.0151 C.ar    1  UNL1        0.0087
     10 C          -0.3500   -0.5061    0.2480 C.ar    1  UNL1       -0.0081
     11 C           0.2136   -1.7747    0.4984 C.ar    1  UNL1       -0.0528
     12 C           1.5916   -1.9791    0.5189 C.ar    1  UNL1       -0.0520
     13 C           2.4635   -0.9156    0.2882 C.ar    1  UNL1        0.0010
     14 C           3.8511   -1.1181    0.3081 C.ar    1  UNL1       -0.0511
     15 C           4.7112   -0.0552    0.0778 C.ar    1  UNL1       -0.0430
     16 C           4.1496    1.1788   -0.1656 C.ar    1  UNL1        0.0283
     17 N           2.8183    1.4057   -0.1914 N.ar    1  UNL1       -0.2544
     18 C           1.9613    0.3768    0.0320 C.ar    1  UNL1        0.0787
     19 H          -5.6259    0.5415    0.1154 H       1  UNL1        0.0618
     20 H          -4.8541   -1.7703    0.5756 H       1  UNL1        0.0618
     21 H          -2.4822   -2.2883    0.6448 H       1  UNL1        0.0624
     22 H          -3.9825    2.3275   -0.2747 H       1  UNL1        0.0624
     23 H          -1.6886    3.0912   -0.4661 H       1  UNL1        0.0624
     24 H           0.7012    2.6811   -0.4192 H       1  UNL1        0.0624
     25 H          -0.4138   -2.6415    0.6851 H       1  UNL1        0.0624
     26 H           1.9726   -2.9784    0.7171 H       1  UNL1        0.0624
     27 H           4.2664   -2.1037    0.5030 H       1  UNL1        0.0625
     28 H           5.7866   -0.1869    0.0881 H       1  UNL1        0.0633
     29 H           4.7694    2.0508   -0.3532 H       1  UNL1        0.0830
@<TRIPOS>BOND
     1     1     2   ar
     2     2     3   ar
     3     3     4   ar
     4     4     5   ar
     5     5     6   ar
     6     5     7   ar
     7     7     8   ar
     8     8     9   ar
     9     9    10   ar
    10    10    11   ar
    11    11    12   ar
    12    12    13   ar
    13    13    14   ar
    14    14    15   ar
    15    15    16   ar
    16    16    17   ar
    17    17    18   ar
    18     6     1   ar
    19    18     9   ar
    20    10     4   ar
    21    18    13   ar
    22     1    19    1
    23     2    20    1
    24     3    21    1
    25     6    22    1
    26     7    23    1
    27     8    24    1
    28    11    25    1
    29    12    26    1
    30    14    27    1
    31    15    28    1
    32    16    29    1
