@<TRIPOS>MOLECULE
*****
 46 51 0 0 0
SMALL
GASTEIGER

@<TRIPOS>ATOM
      1 C           7.5862    0.2209    0.5372 C.ar    1  UNL1       -0.0614
      2 C           7.4200    0.8912   -0.6647 C.ar    1  UNL1       -0.0600
      3 C           6.1463    0.9945   -1.2265 C.ar    1  UNL1       -0.0403
      4 C           5.0092    0.4334   -0.6079 C.ar    1  UNL1        0.0345
      5 C           5.1840   -0.2230    0.6187 C.ar    1  UNL1       -0.0259
      6 C           6.4776   -0.3338    1.1718 C.ar    1  UNL1       -0.0568
      7 C           4.0429   -0.8670    1.3614 C.3     1  UNL1       -0.0219
      8 C           2.8744    0.0864    1.5718 C.3     1  UNL1       -0.0219
      9 C           1.9608    0.1489    0.3761 C.ar    1  UNL1       -0.0253
     10 C           0.5732   -0.0191    0.5967 C.ar    1  UNL1       -0.0476
     11 C          -0.3756    0.0376   -0.4384 C.ar    1  UNL1        0.0008
     12 C          -1.8167   -0.1439   -0.1584 C.ar    1  UNL1        0.0730
     13 C          -2.8063    0.5265   -0.8805 C.ar    1  UNL1       -0.0117
     14 C          -4.1267    0.2639   -0.5113 C.ar    1  UNL1        0.0510
     15 N          -5.3098    0.7543   -1.0110 N.ar    1  UNL1       -0.3540
     16 C          -6.3822    0.2148   -0.3412 C.ar    1  UNL1        0.0504
     17 C          -7.7505    0.4181   -0.5075 C.ar    1  UNL1       -0.0196
     18 C          -8.5587   -0.3023    0.3588 C.ar    1  UNL1        0.0295
     19 N          -8.1118   -1.1504    1.3107 N.ar    1  UNL1       -0.2625
     20 C          -6.7752   -1.3310    1.4531 C.ar    1  UNL1        0.0373
     21 C          -5.8717   -0.6504    0.6269 C.ar    1  UNL1        0.0269
     22 C          -4.4463   -0.6161    0.5196 C.ar    1  UNL1        0.0270
     23 C          -3.3984   -1.2438    1.1987 C.ar    1  UNL1        0.0380
     24 N          -2.1087   -0.9983    0.8573 N.ar    1  UNL1       -0.2542
     25 C           0.1144    0.2628   -1.7286 C.ar    1  UNL1       -0.0508
     26 C           1.4840    0.4432   -1.9587 C.ar    1  UNL1       -0.0397
     27 C           2.4291    0.4042   -0.9166 C.ar    1  UNL1        0.0346
     28 N           3.7764    0.6015   -1.2648 N.pl3   1  UNL1       -0.3141
     29 H           8.5729    0.1288    0.9824 H       1  UNL1        0.0618
     30 H           8.2753    1.3328   -1.1681 H       1  UNL1        0.0618
     31 H           6.0458    1.5285   -2.1686 H       1  UNL1        0.0636
     32 H           6.6263   -0.8588    2.1135 H       1  UNL1        0.0621
     33 H           4.3933   -1.1813    2.3532 H       1  UNL1        0.0317
     34 H           3.7378   -1.7819    0.8378 H       1  UNL1        0.0317
     35 H           3.2113    1.0994    1.8257 H       1  UNL1        0.0317
     36 H           2.3070   -0.2765    2.4386 H       1  UNL1        0.0317
     37 H           0.2178   -0.2011    1.6118 H       1  UNL1        0.0627
     38 H          -2.5685    1.2266   -1.6711 H       1  UNL1        0.0660
     39 H          -5.3820    1.4195   -1.7676 H       1  UNL1        0.1659
     40 H          -8.1617    1.0857   -1.2531 H       1  UNL1        0.0653
     41 H          -9.6408   -0.2098    0.3057 H       1  UNL1        0.0830
     42 H          -6.4648   -2.0204    2.2299 H       1  UNL1        0.0836
     43 H          -3.5524   -1.9411    2.0142 H       1  UNL1        0.0836
     44 H          -0.5574    0.2830   -2.5829 H       1  UNL1        0.0625
     45 H           1.8111    0.6092   -2.9828 H       1  UNL1        0.0636
     46 H           3.8888    0.9343   -2.2153 H       1  UNL1        0.1522
@<TRIPOS>BOND
     1     1     2   ar
     2     2     3   ar
     3     3     4   ar
     4     4     5   ar
     5     5     6   ar
     6     5     7    1
     7     7     8    1
     8     8     9    1
     9     9    10   ar
    10    10    11   ar
    11    11    12    1
    12    12    13   ar
    13    13    14   ar
    14    14    15   ar
    15    15    16   ar
    16    16    17   ar
    17    17    18   ar
    18    18    19   ar
    19    19    20   ar
    20    20    21   ar
    21    21    22   ar
    22    22    23   ar
    23    23    24   ar
    24    11    25   ar
    25    25    26   ar
    26    26    27   ar
    27    27    28    1
    28     6     1   ar
    29    27     9   ar
    30    28     4    1
    31    24    12   ar
    32    22    14   ar
    33    21    16   ar
    34     1    29    1
    35     2    30    1
    36     3    31    1
    37     6    32    1
    38     7    33    1
    39     7    34    1
    40     8    35    1
    41     8    36    1
    42    10    37    1
    43    13    38    1
    44    15    39    1
    45    17    40    1
    46    18    41    1
    47    20    42    1
    48    23    43    1
    49    25    44    1
    50    26    45    1
    51    28    46    1
