@<TRIPOS>MOLECULE
*****
 41 45 0 0 0
SMALL
GASTEIGER

@<TRIPOS>ATOM
      1 C          -6.5372   -0.0547    0.4163 C.ar    1  UNL1       -0.0614
      2 C          -6.3803    0.6370   -0.7746 C.ar    1  UNL1       -0.0600
      3 C          -5.1042    0.7944   -1.3179 C.ar    1  UNL1       -0.0403
      4 C          -3.9552    0.2674   -0.6913 C.ar    1  UNL1        0.0345
      5 C          -4.1215   -0.4108    0.5246 C.ar    1  UNL1       -0.0259
      6 C          -5.4172   -0.5764    1.0587 C.ar    1  UNL1       -0.0568
      7 C          -2.9675   -1.0216    1.2748 C.3     1  UNL1       -0.0219
      8 C          -1.8364   -0.0296    1.5097 C.3     1  UNL1       -0.0219
      9 C          -0.9095    0.0766    0.3271 C.ar    1  UNL1       -0.0253
     10 C           0.4791   -0.0473    0.5635 C.ar    1  UNL1       -0.0477
     11 C           1.4187    0.0588   -0.4675 C.ar    1  UNL1       -0.0013
     12 C           2.8475   -0.0789   -0.1869 C.ar    1  UNL1        0.0475
     13 C           3.5165   -0.8978    0.7075 C.ar    1  UNL1       -0.0272
     14 C           4.9114   -0.6403    0.6041 C.ar    1  UNL1        0.0183
     15 C           6.0534   -1.1503    1.2327 C.ar    1  UNL1        0.0367
     16 N           7.2849   -0.6820    0.9093 N.ar    1  UNL1       -0.2625
     17 C           7.3878    0.2852   -0.0292 C.ar    1  UNL1        0.0295
     18 C           6.3206    0.8545   -0.7083 C.ar    1  UNL1       -0.0196
     19 C           5.0686    0.3539   -0.3585 C.ar    1  UNL1        0.0498
     20 N           3.8130    0.6775   -0.8159 N.ar    1  UNL1       -0.3541
     21 C           0.9538    0.2912   -1.7598 C.ar    1  UNL1       -0.0509
     22 C          -0.4173    0.4261   -2.0017 C.ar    1  UNL1       -0.0397
     23 C          -1.3714    0.3346   -0.9693 C.ar    1  UNL1        0.0346
     24 N          -2.7212    0.4892   -1.3299 N.pl3   1  UNL1       -0.3141
     25 H          -7.5256   -0.1886    0.8470 H       1  UNL1        0.0618
     26 H          -7.2448    1.0534   -1.2839 H       1  UNL1        0.0618
     27 H          -5.0117    1.3440   -2.2519 H       1  UNL1        0.0636
     28 H          -5.5590   -1.1186    1.9917 H       1  UNL1        0.0621
     29 H          -2.6235   -1.9194    0.7458 H       1  UNL1        0.0317
     30 H          -3.3185   -1.3586    2.2589 H       1  UNL1        0.0317
     31 H          -1.2678   -0.3807    2.3807 H       1  UNL1        0.0317
     32 H          -2.2119    0.9684    1.7687 H       1  UNL1        0.0317
     33 H           0.8292   -0.2199    1.5801 H       1  UNL1        0.0627
     34 H           3.0503   -1.6206    1.3647 H       1  UNL1        0.0645
     35 H           6.0149   -1.9241    1.9904 H       1  UNL1        0.0836
     36 H           8.4047    0.6106   -0.2344 H       1  UNL1        0.0830
     37 H           6.4598    1.6278   -1.4518 H       1  UNL1        0.0653
     38 H           3.6224    1.3910   -1.5045 H       1  UNL1        0.1659
     39 H           1.6400    0.3498   -2.5999 H       1  UNL1        0.0625
     40 H          -0.7399    0.5986   -3.0262 H       1  UNL1        0.0636
     41 H          -2.8351    0.8303   -2.2776 H       1  UNL1        0.1522
@<TRIPOS>BOND
     1     1     2   ar
     2     2     3   ar
     3     3     4   ar
     4     4     5   ar
     5     5     6   ar
     6     5     7    1
     7     7     8    1
     8     8     9    1
     9     9    10   ar
    10    10    11   ar
    11    11    12    1
    12    12    13   ar
    13    13    14   ar
    14    14    15   ar
    15    15    16   ar
    16    16    17   ar
    17    17    18   ar
    18    18    19   ar
    19    19    20   ar
    20    11    21   ar
    21    21    22   ar
    22    22    23   ar
    23    23    24    1
    24     6     1   ar
    25    23     9   ar
    26    24     4    1
    27    20    12   ar
    28    19    14   ar
    29     1    25    1
    30     2    26    1
    31     3    27    1
    32     6    28    1
    33     7    29    1
    34     7    30    1
    35     8    31    1
    36     8    32    1
    37    10    33    1
    38    13    34    1
    39    15    35    1
    40    17    36    1
    41    18    37    1
    42    20    38    1
    43    21    39    1
    44    22    40    1
    45    24    41    1
