@<TRIPOS>MOLECULE
*****
 46 50 0 0 0
SMALL
GASTEIGER

@<TRIPOS>ATOM
      1 C          -7.5090    0.3711    0.6472 C.ar    1  UNL1       -0.0614
      2 C          -7.4555    0.0711   -0.7050 C.ar    1  UNL1       -0.0600
      3 C          -6.2179   -0.0041   -1.3464 C.ar    1  UNL1       -0.0403
      4 C          -5.0057    0.2176   -0.6595 C.ar    1  UNL1        0.0345
      5 C          -5.0690    0.4986    0.7127 C.ar    1  UNL1       -0.0259
      6 C          -6.3255    0.5858    1.3491 C.ar    1  UNL1       -0.0568
      7 C          -3.8400    0.7624    1.5419 C.3     1  UNL1       -0.0219
      8 C          -2.7920   -0.3324    1.3943 C.3     1  UNL1       -0.0219
      9 C          -1.9204   -0.1348    0.1818 C.ar    1  UNL1       -0.0253
     10 C          -0.5184   -0.1904    0.3594 C.ar    1  UNL1       -0.0491
     11 C           0.3797   -0.0388   -0.7074 C.ar    1  UNL1       -0.0175
     12 C           1.8343   -0.0920   -0.4944 C.ar    1  UNL1       -0.0178
     13 C           2.6437   -0.9665   -1.2305 C.ar    1  UNL1       -0.0534
     14 C           4.0292   -1.0131   -1.0267 C.ar    1  UNL1       -0.0519
     15 C           4.6643   -0.1929   -0.0779 C.ar    1  UNL1        0.0019
     16 C           6.1257   -0.2646    0.1218 C.ar    1  UNL1        0.0890
     17 C           6.7577    0.0283    1.3315 C.ar    1  UNL1        0.0535
     18 N           8.1026   -0.0334    1.5147 N.ar    1  UNL1       -0.2596
     19 C           8.8106   -0.4109    0.4302 C.ar    1  UNL1        0.0457
     20 C           8.2055   -0.7149   -0.7750 C.ar    1  UNL1        0.0464
     21 N           6.8652   -0.6524   -0.9533 N.ar    1  UNL1       -0.2520
     22 C           3.8471    0.6889    0.6498 C.ar    1  UNL1       -0.0519
     23 C           2.4600    0.7361    0.4474 C.ar    1  UNL1       -0.0534
     24 C          -0.1593    0.1665   -1.9785 C.ar    1  UNL1       -0.0523
     25 C          -1.5443    0.2114   -2.1677 C.ar    1  UNL1       -0.0397
     26 C          -2.4492    0.0519   -1.1008 C.ar    1  UNL1        0.0346
     27 N          -3.8193    0.1156   -1.4086 N.pl3   1  UNL1       -0.3141
     28 H          -8.4661    0.4376    1.1569 H       1  UNL1        0.0618
     29 H          -8.3705   -0.1034   -1.2640 H       1  UNL1        0.0618
     30 H          -6.2067   -0.2435   -2.4073 H       1  UNL1        0.0636
     31 H          -6.3863    0.8228    2.4096 H       1  UNL1        0.0621
     32 H          -3.4378    1.7524    1.2921 H       1  UNL1        0.0317
     33 H          -4.1250    0.8034    2.6012 H       1  UNL1        0.0317
     34 H          -3.2437   -1.3319    1.3591 H       1  UNL1        0.0317
     35 H          -2.1643   -0.3091    2.2946 H       1  UNL1        0.0317
     36 H          -0.1187   -0.3681    1.3574 H       1  UNL1        0.0627
     37 H           2.2015   -1.6329   -1.9686 H       1  UNL1        0.0624
     38 H           4.6193   -1.7099   -1.6214 H       1  UNL1        0.0624
     39 H           6.1981    0.3134    2.2155 H       1  UNL1        0.0851
     40 H           9.8857   -0.4653    0.5561 H       1  UNL1        0.0845
     41 H           8.7849   -1.0195   -1.6390 H       1  UNL1        0.0845
     42 H           4.2749    1.3767    1.3758 H       1  UNL1        0.0624
     43 H           1.8699    1.4462    1.0243 H       1  UNL1        0.0624
     44 H           0.4944    0.3052   -2.8370 H       1  UNL1        0.0624
     45 H          -1.9149    0.3800   -3.1764 H       1  UNL1        0.0636
     46 H          -3.9948    0.0818   -2.4064 H       1  UNL1        0.1522
@<TRIPOS>BOND
     1     1     2   ar
     2     2     3   ar
     3     3     4   ar
     4     4     5   ar
     5     5     6   ar
     6     5     7    1
     7     7     8    1
     8     8     9    1
     9     9    10   ar
    10    10    11   ar
    11    11    12    1
    12    12    13   ar
    13    13    14   ar
    14    14    15   ar
    15    15    16    1
    16    16    17   ar
    17    17    18   ar
    18    18    19   ar
    19    19    20   ar
    20    20    21   ar
    21    15    22   ar
    22    22    23   ar
    23    11    24   ar
    24    24    25   ar
    25    25    26   ar
    26    26    27    1
    27     6     1   ar
    28    26     9   ar
    29    27     4    1
    30    23    12   ar
    31    21    16   ar
    32     1    28    1
    33     2    29    1
    34     3    30    1
    35     6    31    1
    36     7    32    1
    37     7    33    1
    38     8    34    1
    39     8    35    1
    40    10    36    1
    41    13    37    1
    42    14    38    1
    43    17    39    1
    44    19    40    1
    45    20    41    1
    46    22    42    1
    47    23    43    1
    48    24    44    1
    49    25    45    1
    50    27    46    1
