@<TRIPOS>MOLECULE
*****
 40 44 0 0 0
SMALL
GASTEIGER

@<TRIPOS>ATOM
      1 C           6.2600   -0.3057   -0.4594 C.ar    1  UNL1       -0.0614
      2 C           6.1354   -0.4013    0.9178 C.ar    1  UNL1       -0.0600
      3 C           4.8652   -0.4741    1.4922 C.ar    1  UNL1       -0.0403
      4 C           3.6901   -0.4532    0.7117 C.ar    1  UNL1        0.0345
      5 C           3.8259   -0.3356   -0.6789 C.ar    1  UNL1       -0.0259
      6 C           5.1146   -0.2762   -1.2510 C.ar    1  UNL1       -0.0568
      7 C           2.6412   -0.3156   -1.6084 C.3     1  UNL1       -0.0219
      8 C           1.6045    0.7249   -1.2068 C.3     1  UNL1       -0.0219
      9 C           0.6633    0.2196   -0.1448 C.ar    1  UNL1       -0.0253
     10 C          -0.7253    0.3680   -0.3680 C.ar    1  UNL1       -0.0491
     11 C          -1.6841   -0.0579    0.5630 C.ar    1  UNL1       -0.0174
     12 C          -3.1243    0.1013    0.3021 C.ar    1  UNL1       -0.0157
     13 C          -3.9923   -1.0078    0.3620 C.ar    1  UNL1       -0.0519
     14 C          -5.3699   -0.9017    0.1191 C.ar    1  UNL1       -0.0342
     15 C          -5.8435    0.3716   -0.1884 C.ar    1  UNL1        0.0858
     16 N          -7.0821    0.8686   -0.4806 N.ar    1  UNL1       -0.2571
     17 N          -7.0508    2.1907   -0.7141 N.ar    1  UNL1       -0.0673
     18 N          -5.7910    2.5877   -0.5801 N.ar    1  UNL1       -0.1297
     19 C          -5.0317    1.4938   -0.2597 C.ar    1  UNL1        0.1130
     20 C          -3.6572    1.3678   -0.0138 C.ar    1  UNL1       -0.0247
     21 C          -1.2215   -0.6386    1.7450 C.ar    1  UNL1       -0.0523
     22 C           0.1498   -0.7764    1.9827 C.ar    1  UNL1       -0.0397
     23 C           1.1158   -0.3423    1.0548 C.ar    1  UNL1        0.0346
     24 N           2.4651   -0.5358    1.3984 N.pl3   1  UNL1       -0.3141
     25 H           7.2430   -0.2533   -0.9191 H       1  UNL1        0.0618
     26 H           7.0203   -0.4211    1.5476 H       1  UNL1        0.0618
     27 H           4.7986   -0.5469    2.5753 H       1  UNL1        0.0636
     28 H           5.2310   -0.2036   -2.3306 H       1  UNL1        0.0621
     29 H           2.9845   -0.0639   -2.6204 H       1  UNL1        0.0317
     30 H           2.2099   -1.3228   -1.6704 H       1  UNL1        0.0317
     31 H           1.0280    0.9777   -2.1062 H       1  UNL1        0.0317
     32 H           2.0698    1.6586   -0.8664 H       1  UNL1        0.0317
     33 H          -1.0653    0.8171   -1.3010 H       1  UNL1        0.0627
     34 H          -3.5856   -1.9927    0.5930 H       1  UNL1        0.0624
     35 H          -6.0198   -1.7686    0.1663 H       1  UNL1        0.0639
     36 H          -7.9692    0.3846   -0.5381 H       1  UNL1        0.1907
     37 H          -3.0262    2.2498   -0.0602 H       1  UNL1        0.0646
     38 H          -1.9235   -0.9784    2.5033 H       1  UNL1        0.0624
     39 H           0.4611   -1.2341    2.9191 H       1  UNL1        0.0636
     40 H           2.5860   -0.7745    2.3761 H       1  UNL1        0.1522
@<TRIPOS>BOND
     1     1     2   ar
     2     2     3   ar
     3     3     4   ar
     4     4     5   ar
     5     5     6   ar
     6     5     7    1
     7     7     8    1
     8     8     9    1
     9     9    10   ar
    10    10    11   ar
    11    11    12    1
    12    12    13   ar
    13    13    14   ar
    14    14    15   ar
    15    15    16   ar
    16    16    17   ar
    17    17    18   ar
    18    18    19   ar
    19    19    20   ar
    20    11    21   ar
    21    21    22   ar
    22    22    23   ar
    23    23    24    1
    24     6     1   ar
    25    23     9   ar
    26    24     4    1
    27    20    12   ar
    28    19    15   ar
    29     1    25    1
    30     2    26    1
    31     3    27    1
    32     6    28    1
    33     7    29    1
    34     7    30    1
    35     8    31    1
    36     8    32    1
    37    10    33    1
    38    13    34    1
    39    14    35    1
    40    16    36    1
    41    20    37    1
    42    21    38    1
    43    22    39    1
    44    24    40    1
