@<TRIPOS>MOLECULE
*****
 47 52 0 0 0
SMALL
GASTEIGER

@<TRIPOS>ATOM
      1 C          -7.6315   -0.0195    0.6526 C.ar    1  UNL1       -0.0614
      2 C          -7.5069   -1.0345   -0.2831 C.ar    1  UNL1       -0.0600
      3 C          -6.2363   -1.4514   -0.6836 C.ar    1  UNL1       -0.0403
      4 C          -5.0608   -0.8699   -0.1634 C.ar    1  UNL1        0.0345
      5 C          -5.1974    0.1709    0.7662 C.ar    1  UNL1       -0.0259
      6 C          -6.4860    0.5759    1.1749 C.ar    1  UNL1       -0.0568
      7 C          -4.0118    0.8554    1.3936 C.3     1  UNL1       -0.0219
      8 C          -3.0159    1.3589    0.3577 C.3     1  UNL1       -0.0219
      9 C          -2.0593    0.2853   -0.0907 C.ar    1  UNL1       -0.0253
     10 C          -0.6768    0.5821   -0.0704 C.ar    1  UNL1       -0.0491
     11 C           0.2943   -0.3438   -0.4785 C.ar    1  UNL1       -0.0174
     12 C           1.7279   -0.0122   -0.4406 C.ar    1  UNL1       -0.0159
     13 C           2.2205    1.1075   -1.1283 C.ar    1  UNL1       -0.0533
     14 C           3.5815    1.4459   -1.1096 C.ar    1  UNL1       -0.0514
     15 C           4.4828    0.6461   -0.3816 C.ar    1  UNL1        0.0090
     16 C           3.9833   -0.4655    0.3003 C.ar    1  UNL1        0.0492
     17 C           2.6258   -0.8154    0.2875 C.ar    1  UNL1       -0.0300
     18 N           5.0501   -1.0683    0.9270 N.ar    1  UNL1       -0.3390
     19 C           6.2047   -0.3876    0.6666 C.ar    1  UNL1        0.1391
     20 N           7.4155   -0.7373    1.1394 N.ar    1  UNL1       -0.2375
     21 C           8.3974    0.1016    0.7367 C.ar    1  UNL1        0.0299
     22 C           8.2298    1.2162   -0.0755 C.ar    1  UNL1       -0.0429
     23 C           6.9510    1.5314   -0.5372 C.ar    1  UNL1       -0.0490
     24 C           5.8920    0.6925   -0.1492 C.ar    1  UNL1        0.0264
     25 C          -0.1483   -1.5913   -0.9207 C.ar    1  UNL1       -0.0523
     26 C          -1.5140   -1.8900   -0.9595 C.ar    1  UNL1       -0.0397
     27 C          -2.4932   -0.9606   -0.5589 C.ar    1  UNL1        0.0346
     28 N          -3.8355   -1.3707   -0.6394 N.pl3   1  UNL1       -0.3141
     29 H          -8.6146    0.3104    0.9765 H       1  UNL1        0.0618
     30 H          -8.3919   -1.5048   -0.7021 H       1  UNL1        0.0618
     31 H          -6.1694   -2.2483   -1.4207 H       1  UNL1        0.0636
     32 H          -6.6022    1.3695    1.9106 H       1  UNL1        0.0621
     33 H          -3.5430    0.1793    2.1198 H       1  UNL1        0.0317
     34 H          -4.3615    1.7261    1.9636 H       1  UNL1        0.0317
     35 H          -3.5167    1.7892   -0.5189 H       1  UNL1        0.0317
     36 H          -2.4468    2.1762    0.8196 H       1  UNL1        0.0317
     37 H          -0.3493    1.5581    0.2868 H       1  UNL1        0.0627
     38 H           1.5394    1.7316   -1.7049 H       1  UNL1        0.0624
     39 H           3.9325    2.3168   -1.6551 H       1  UNL1        0.0624
     40 H           2.2727   -1.6822    0.8396 H       1  UNL1        0.0644
     41 H           5.0089   -1.8956    1.5012 H       1  UNL1        0.1673
     42 H           9.3875   -0.1578    1.1049 H       1  UNL1        0.0830
     43 H           9.0816    1.8309   -0.3456 H       1  UNL1        0.0633
     44 H           6.7819    2.3936   -1.1729 H       1  UNL1        0.0625
     45 H           0.5658   -2.3411   -1.2539 H       1  UNL1        0.0624
     46 H          -1.8098   -2.8750   -1.3137 H       1  UNL1        0.0636
     47 H          -3.9481   -2.2286   -1.1675 H       1  UNL1        0.1522
@<TRIPOS>BOND
     1     1     2   ar
     2     2     3   ar
     3     3     4   ar
     4     4     5   ar
     5     5     6   ar
     6     5     7    1
     7     7     8    1
     8     8     9    1
     9     9    10   ar
    10    10    11   ar
    11    11    12    1
    12    12    13   ar
    13    13    14   ar
    14    14    15   ar
    15    15    16   ar
    16    16    17   ar
    17    16    18   ar
    18    18    19   ar
    19    19    20   ar
    20    20    21   ar
    21    21    22   ar
    22    22    23   ar
    23    23    24   ar
    24    11    25   ar
    25    25    26   ar
    26    26    27   ar
    27    27    28    1
    28     6     1   ar
    29    27     9   ar
    30    28     4    1
    31    17    12   ar
    32    24    19   ar
    33    24    15   ar
    34     1    29    1
    35     2    30    1
    36     3    31    1
    37     6    32    1
    38     7    33    1
    39     7    34    1
    40     8    35    1
    41     8    36    1
    42    10    37    1
    43    13    38    1
    44    14    39    1
    45    17    40    1
    46    18    41    1
    47    21    42    1
    48    22    43    1
    49    23    44    1
    50    25    45    1
    51    26    46    1
    52    28    47    1
