@<TRIPOS>MOLECULE
*****
 47 52 0 0 0
SMALL
GASTEIGER

@<TRIPOS>ATOM
      1 C          -7.7418    0.1006   -0.3349 C.ar    1  UNL1       -0.0614
      2 C          -7.5796    1.1953    0.4997 C.ar    1  UNL1       -0.0600
      3 C          -6.2938    1.6360    0.8174 C.ar    1  UNL1       -0.0403
      4 C          -5.1401    1.0000    0.3127 C.ar    1  UNL1        0.0345
      5 C          -5.3141   -0.1201   -0.5125 C.ar    1  UNL1       -0.0259
      6 C          -6.6181   -0.5497   -0.8389 C.ar    1  UNL1       -0.0568
      7 C          -4.1544   -0.8690   -1.1143 C.3     1  UNL1       -0.0219
      8 C          -3.1266   -1.2848   -0.0705 C.3     1  UNL1       -0.0219
      9 C          -2.1492   -0.1833    0.2460 C.ar    1  UNL1       -0.0253
     10 C          -0.7697   -0.4928    0.2072 C.ar    1  UNL1       -0.0491
     11 C           0.2205    0.4574    0.4968 C.ar    1  UNL1       -0.0175
     12 C           1.6500    0.1112    0.4431 C.ar    1  UNL1       -0.0168
     13 C           2.1565   -0.9614    1.1806 C.ar    1  UNL1       -0.0534
     14 C           3.5156   -1.2977    1.1371 C.ar    1  UNL1       -0.0524
     15 C           4.4207   -0.5556    0.3378 C.ar    1  UNL1       -0.0031
     16 C           3.9070    0.5126   -0.3953 C.ar    1  UNL1        0.0211
     17 C           2.5382    0.8544   -0.3523 C.ar    1  UNL1       -0.0397
     18 S           5.1309    1.2974   -1.3053 S.2     1  UNL1       -0.0882
     19 C           6.3596    0.2409   -0.7436 C.ar    1  UNL1        0.0205
     20 C           7.7262    0.2780   -1.0874 C.ar    1  UNL1       -0.0474
     21 C           8.5920   -0.6659   -0.5323 C.ar    1  UNL1       -0.0607
     22 C           8.1142   -1.6271    0.3453 C.ar    1  UNL1       -0.0611
     23 C           6.7577   -1.6593    0.6827 C.ar    1  UNL1       -0.0529
     24 C           5.8495   -0.7141    0.1366 C.ar    1  UNL1       -0.0031
     25 C          -0.2006    1.7439    0.8374 C.ar    1  UNL1       -0.0523
     26 C          -1.5625    2.0570    0.8937 C.ar    1  UNL1       -0.0397
     27 C          -2.5600    1.1039    0.6121 C.ar    1  UNL1        0.0346
     28 N          -3.8965    1.5308    0.7008 N.pl3   1  UNL1       -0.3141
     29 H          -8.7372   -0.2490   -0.5941 H       1  UNL1        0.0618
     30 H          -8.4472    1.7092    0.9038 H       1  UNL1        0.0618
     31 H          -6.1972    2.4959    1.4765 H       1  UNL1        0.0636
     32 H          -6.7638   -1.4059   -1.4948 H       1  UNL1        0.0621
     33 H          -4.5281   -1.7849   -1.5905 H       1  UNL1        0.0317
     34 H          -3.7068   -0.2658   -1.9143 H       1  UNL1        0.0317
     35 H          -3.5997   -1.6292    0.8579 H       1  UNL1        0.0317
     36 H          -2.5782   -2.1456   -0.4748 H       1  UNL1        0.0317
     37 H          -0.4615   -1.5003   -0.0711 H       1  UNL1        0.0627
     38 H           1.4946   -1.5484    1.8153 H       1  UNL1        0.0624
     39 H           3.8739   -2.1370    1.7278 H       1  UNL1        0.0624
     40 H           2.1744    1.6884   -0.9484 H       1  UNL1        0.0635
     41 H           8.1025    1.0303   -1.7751 H       1  UNL1        0.0629
     42 H           9.6478   -0.6449   -0.7920 H       1  UNL1        0.0618
     43 H           8.7943   -2.3592    0.7738 H       1  UNL1        0.0618
     44 H           6.3993   -2.4194    1.3723 H       1  UNL1        0.0624
     45 H           0.5275    2.5160    1.0766 H       1  UNL1        0.0624
     46 H          -1.8403    3.0729    1.1658 H       1  UNL1        0.0636
     47 H          -3.9858    2.4381    1.1438 H       1  UNL1        0.1522
@<TRIPOS>BOND
     1     1     2   ar
     2     2     3   ar
     3     3     4   ar
     4     4     5   ar
     5     5     6   ar
     6     5     7    1
     7     7     8    1
     8     8     9    1
     9     9    10   ar
    10    10    11   ar
    11    11    12    1
    12    12    13   ar
    13    13    14   ar
    14    14    15   ar
    15    15    16   ar
    16    16    17   ar
    17    16    18   ar
    18    18    19   ar
    19    19    20   ar
    20    20    21   ar
    21    21    22   ar
    22    22    23   ar
    23    23    24   ar
    24    11    25   ar
    25    25    26   ar
    26    26    27   ar
    27    27    28    1
    28     6     1   ar
    29    27     9   ar
    30    28     4    1
    31    17    12   ar
    32    24    19   ar
    33    24    15   ar
    34     1    29    1
    35     2    30    1
    36     3    31    1
    37     6    32    1
    38     7    33    1
    39     7    34    1
    40     8    35    1
    41     8    36    1
    42    10    37    1
    43    13    38    1
    44    14    39    1
    45    17    40    1
    46    20    41    1
    47    21    42    1
    48    22    43    1
    49    23    44    1
    50    25    45    1
    51    26    46    1
    52    28    47    1
