@<TRIPOS>MOLECULE
*****
 42 46 0 0 0
SMALL
GASTEIGER

@<TRIPOS>ATOM
      1 C           6.5965    0.3534    0.7136 C.ar    1  UNL1       -0.0614
      2 C           6.5496   -0.7674   -0.1006 C.ar    1  UNL1       -0.0600
      3 C           5.3215   -1.2102   -0.5946 C.ar    1  UNL1       -0.0403
      4 C           4.1123   -0.5494   -0.2920 C.ar    1  UNL1        0.0345
      5 C           4.1673    0.5697    0.5509 C.ar    1  UNL1       -0.0259
      6 C           5.4152    1.0177    1.0341 C.ar    1  UNL1       -0.0568
      7 C           2.9411    1.3566    0.9319 C.3     1  UNL1       -0.0219
      8 C           1.8344    0.4738    1.4928 C.3     1  UNL1       -0.0219
      9 C           0.9974   -0.1568    0.4106 C.ar    1  UNL1       -0.0253
     10 C          -0.4085   -0.0359    0.5079 C.ar    1  UNL1       -0.0491
     11 C          -1.2777   -0.6018   -0.4366 C.ar    1  UNL1       -0.0174
     12 C          -2.7369   -0.4550   -0.3158 C.ar    1  UNL1       -0.0157
     13 C          -3.5834   -1.5685   -0.3546 C.ar    1  UNL1       -0.0519
     14 C          -4.9677   -1.4153   -0.2372 C.ar    1  UNL1       -0.0337
     15 C          -5.5439   -0.1637   -0.0800 C.ar    1  UNL1        0.0892
     16 N          -6.8832   -0.0563    0.0296 N.ar    1  UNL1       -0.2519
     17 C          -7.3737    1.1927    0.1799 C.ar    1  UNL1        0.0464
     18 C          -6.5574    2.3038    0.2205 C.ar    1  UNL1        0.0464
     19 N          -5.2143    2.2155    0.1128 N.ar    1  UNL1       -0.2519
     20 C          -4.7045    0.9762   -0.0383 C.ar    1  UNL1        0.0897
     21 C          -3.3288    0.8090   -0.1565 C.ar    1  UNL1       -0.0265
     22 C          -0.7049   -1.3086   -1.4955 C.ar    1  UNL1       -0.0523
     23 C           0.6836   -1.4448   -1.5948 C.ar    1  UNL1       -0.0397
     24 C           1.5588   -0.8849   -0.6447 C.ar    1  UNL1        0.0346
     25 N           2.9354   -1.0864   -0.8451 N.pl3   1  UNL1       -0.3141
     26 H           7.5465    0.7114    1.1003 H       1  UNL1        0.0618
     27 H           7.4628   -1.2981   -0.3548 H       1  UNL1        0.0618
     28 H           5.3153   -2.0937   -1.2289 H       1  UNL1        0.0636
     29 H           5.4707    1.8973    1.6727 H       1  UNL1        0.0621
     30 H           3.2092    2.0820    1.7111 H       1  UNL1        0.0317
     31 H           2.6015    1.9425    0.0685 H       1  UNL1        0.0317
     32 H           2.2281   -0.3102    2.1519 H       1  UNL1        0.0317
     33 H           1.1932    1.1090    2.1178 H       1  UNL1        0.0317
     34 H          -0.8333    0.5082    1.3513 H       1  UNL1        0.0627
     35 H          -3.1723   -2.5705   -0.4635 H       1  UNL1        0.0624
     36 H          -5.6102   -2.2919   -0.2657 H       1  UNL1        0.0640
     37 H          -8.4508    1.2745    0.2674 H       1  UNL1        0.0845
     38 H          -6.9611    3.3023    0.3413 H       1  UNL1        0.0845
     39 H          -2.7045    1.7005   -0.1338 H       1  UNL1        0.0645
     40 H          -1.3319   -1.7533   -2.2652 H       1  UNL1        0.0624
     41 H           1.0816   -1.9995   -2.4418 H       1  UNL1        0.0636
     42 H           3.1272   -1.7740   -1.5647 H       1  UNL1        0.1522
@<TRIPOS>BOND
     1     1     2   ar
     2     2     3   ar
     3     3     4   ar
     4     4     5   ar
     5     5     6   ar
     6     5     7    1
     7     7     8    1
     8     8     9    1
     9     9    10   ar
    10    10    11   ar
    11    11    12    1
    12    12    13   ar
    13    13    14   ar
    14    14    15   ar
    15    15    16   ar
    16    16    17   ar
    17    17    18   ar
    18    18    19   ar
    19    19    20   ar
    20    20    21   ar
    21    11    22   ar
    22    22    23   ar
    23    23    24   ar
    24    24    25    1
    25     6     1   ar
    26    24     9   ar
    27    25     4    1
    28    21    12   ar
    29    20    15   ar
    30     1    26    1
    31     2    27    1
    32     3    28    1
    33     6    29    1
    34     7    30    1
    35     7    31    1
    36     8    32    1
    37     8    33    1
    38    10    34    1
    39    13    35    1
    40    14    36    1
    41    17    37    1
    42    18    38    1
    43    21    39    1
    44    22    40    1
    45    23    41    1
    46    25    42    1
