@<TRIPOS>MOLECULE
*****
 42 46 0 0 0
SMALL
GASTEIGER

@<TRIPOS>ATOM
      1 C          -6.6552    0.6318    0.3446 C.ar    1  UNL1       -0.0614
      2 C          -6.6074   -0.5870   -0.3138 C.ar    1  UNL1       -0.0600
      3 C          -5.3745   -1.2015   -0.5388 C.ar    1  UNL1       -0.0403
      4 C          -4.1612   -0.6200   -0.1142 C.ar    1  UNL1        0.0345
      5 C          -4.2181    0.6237    0.5307 C.ar    1  UNL1       -0.0259
      6 C          -5.4704    1.2304    0.7657 C.ar    1  UNL1       -0.0568
      7 C          -2.9877    1.3308    1.0345 C.3     1  UNL1       -0.0219
      8 C          -1.9180    1.4734   -0.0398 C.3     1  UNL1       -0.0219
      9 C          -1.0617    0.2403   -0.1666 C.ar    1  UNL1       -0.0253
     10 C           0.3428    0.4062   -0.1460 C.ar    1  UNL1       -0.0490
     11 C           1.2291   -0.6738   -0.2757 C.ar    1  UNL1       -0.0160
     12 C           2.6844   -0.4736   -0.2449 C.ar    1  UNL1        0.0023
     13 C           3.5227   -0.9967   -1.2250 C.ar    1  UNL1        0.0361
     14 N           4.8680   -0.8479   -1.2476 N.ar    1  UNL1       -0.2528
     15 C           5.4251   -0.1371   -0.2480 C.ar    1  UNL1        0.0892
     16 C           6.7979    0.0510   -0.2180 C.ar    1  UNL1       -0.0328
     17 C           7.3987    0.7816    0.8043 C.ar    1  UNL1       -0.0415
     18 C           6.5845    1.3117    1.7852 C.ar    1  UNL1        0.0284
     19 N           5.2440    1.1586    1.8031 N.ar    1  UNL1       -0.2534
     20 C           4.6850    0.4463    0.8015 C.ar    1  UNL1        0.0897
     21 C           3.3108    0.2576    0.7738 C.ar    1  UNL1       -0.0251
     22 C           0.6734   -1.9450   -0.4336 C.ar    1  UNL1       -0.0522
     23 C          -0.7142   -2.1188   -0.4677 C.ar    1  UNL1       -0.0397
     24 C          -1.6061   -1.0363   -0.3470 C.ar    1  UNL1        0.0346
     25 N          -2.9797   -1.3296   -0.3965 N.pl3   1  UNL1       -0.3141
     26 H          -7.6088    1.1180    0.5307 H       1  UNL1        0.0618
     27 H          -7.5235   -1.0629   -0.6520 H       1  UNL1        0.0618
     28 H          -5.3679   -2.1561   -1.0601 H       1  UNL1        0.0636
     29 H          -5.5266    2.1862    1.2833 H       1  UNL1        0.0621
     30 H          -2.6092    0.8134    1.9251 H       1  UNL1        0.0317
     31 H          -3.2640    2.3425    1.3592 H       1  UNL1        0.0317
     32 H          -1.2828    2.3237    0.2407 H       1  UNL1        0.0317
     33 H          -2.3485    1.7198   -1.0186 H       1  UNL1        0.0317
     34 H           0.7514    1.4108   -0.0351 H       1  UNL1        0.0627
     35 H           3.1225   -1.5657   -2.0614 H       1  UNL1        0.0836
     36 H           7.4080   -0.3806   -1.0069 H       1  UNL1        0.0640
     37 H           8.4722    0.9298    0.8295 H       1  UNL1        0.0633
     38 H           6.9972    1.8902    2.6070 H       1  UNL1        0.0830
     39 H           2.7195    0.6866    1.5800 H       1  UNL1        0.0646
     40 H           1.3110   -2.8226   -0.5189 H       1  UNL1        0.0624
     41 H          -1.0983   -3.1299   -0.5862 H       1  UNL1        0.0636
     42 H          -3.1646   -2.2792   -0.6994 H       1  UNL1        0.1522
@<TRIPOS>BOND
     1     1     2   ar
     2     2     3   ar
     3     3     4   ar
     4     4     5   ar
     5     5     6   ar
     6     5     7    1
     7     7     8    1
     8     8     9    1
     9     9    10   ar
    10    10    11   ar
    11    11    12    1
    12    12    13   ar
    13    13    14   ar
    14    14    15   ar
    15    15    16   ar
    16    16    17   ar
    17    17    18   ar
    18    18    19   ar
    19    19    20   ar
    20    20    21   ar
    21    11    22   ar
    22    22    23   ar
    23    23    24   ar
    24    24    25    1
    25     6     1   ar
    26    24     9   ar
    27    25     4    1
    28    21    12   ar
    29    20    15   ar
    30     1    26    1
    31     2    27    1
    32     3    28    1
    33     6    29    1
    34     7    30    1
    35     7    31    1
    36     8    32    1
    37     8    33    1
    38    10    34    1
    39    13    35    1
    40    16    36    1
    41    17    37    1
    42    18    38    1
    43    21    39    1
    44    22    40    1
    45    23    41    1
    46    25    42    1
