@<TRIPOS>MOLECULE
*****
 42 46 0 0 0
SMALL
GASTEIGER

@<TRIPOS>ATOM
      1 C          -6.7123   -0.3861    0.3298 C.ar    1  UNL1       -0.0614
      2 C          -6.5358   -0.2175   -1.0347 C.ar    1  UNL1       -0.0600
      3 C          -5.2445   -0.1314   -1.5579 C.ar    1  UNL1       -0.0403
      4 C          -4.0994   -0.2105   -0.7376 C.ar    1  UNL1        0.0345
      5 C          -4.2885   -0.3603    0.6436 C.ar    1  UNL1       -0.0259
      6 C          -5.5975   -0.4599    1.1613 C.ar    1  UNL1       -0.0568
      7 C          -3.1390   -0.4673    1.6105 C.3     1  UNL1       -0.0219
      8 C          -2.1392    0.6704    1.4528 C.3     1  UNL1       -0.0219
      9 C          -1.1387    0.4102    0.3567 C.ar    1  UNL1       -0.0253
     10 C           0.2331    0.5694    0.6627 C.ar    1  UNL1       -0.0490
     11 C           1.2430    0.3630   -0.2890 C.ar    1  UNL1       -0.0160
     12 C           2.6604    0.5274    0.0559 C.ar    1  UNL1        0.0009
     13 C           3.1470    1.6807    0.6603 C.ar    1  UNL1        0.0377
     14 N           4.4403    1.8933    1.0073 N.ar    1  UNL1       -0.2351
     15 C           5.3383    0.9400    0.7597 C.ar    1  UNL1        0.1597
     16 N           6.6081    1.1606    1.1062 N.ar    1  UNL1       -0.2357
     17 C           7.5294    0.2030    0.8631 C.ar    1  UNL1        0.0300
     18 C           7.2430   -1.0096    0.2705 C.ar    1  UNL1       -0.0429
     19 C           5.9276   -1.2499   -0.0939 C.ar    1  UNL1       -0.0496
     20 C           4.9544   -0.2693    0.1483 C.ar    1  UNL1        0.0198
     21 C           3.6076   -0.4644   -0.2010 C.ar    1  UNL1       -0.0419
     22 C           0.8484   -0.0068   -1.5762 C.ar    1  UNL1       -0.0522
     23 C          -0.5061   -0.1517   -1.8934 C.ar    1  UNL1       -0.0397
     24 C          -1.5229    0.0641   -0.9440 C.ar    1  UNL1        0.0346
     25 N          -2.8488   -0.1145   -1.3748 N.pl3   1  UNL1       -0.3141
     26 H          -7.7120   -0.4596    0.7488 H       1  UNL1        0.0618
     27 H          -7.3966   -0.1542   -1.6944 H       1  UNL1        0.0618
     28 H          -5.1374    0.0023   -2.6319 H       1  UNL1        0.0636
     29 H          -5.7546   -0.5951    2.2297 H       1  UNL1        0.0621
     30 H          -3.5284   -0.4228    2.6360 H       1  UNL1        0.0317
     31 H          -2.6632   -1.4503    1.5034 H       1  UNL1        0.0317
     32 H          -2.6359    1.6319    1.2712 H       1  UNL1        0.0317
     33 H          -1.6068    0.7738    2.4072 H       1  UNL1        0.0317
     34 H           0.5152    0.8473    1.6784 H       1  UNL1        0.0627
     35 H           2.4871    2.5151    0.8885 H       1  UNL1        0.0836
     36 H           8.5411    0.4519    1.1718 H       1  UNL1        0.0830
     37 H           8.0213   -1.7443    0.0989 H       1  UNL1        0.0633
     38 H           5.6640   -2.1944   -0.5623 H       1  UNL1        0.0625
     39 H           3.2981   -1.4000   -0.6619 H       1  UNL1        0.0631
     40 H           1.5890   -0.1725   -2.3557 H       1  UNL1        0.0624
     41 H          -0.7635   -0.4393   -2.9106 H       1  UNL1        0.0636
     42 H          -2.9252   -0.1727   -2.3840 H       1  UNL1        0.1522
@<TRIPOS>BOND
     1     1     2   ar
     2     2     3   ar
     3     3     4   ar
     4     4     5   ar
     5     5     6   ar
     6     5     7    1
     7     7     8    1
     8     8     9    1
     9     9    10   ar
    10    10    11   ar
    11    11    12    1
    12    12    13   ar
    13    13    14   ar
    14    14    15   ar
    15    15    16   ar
    16    16    17   ar
    17    17    18   ar
    18    18    19   ar
    19    19    20   ar
    20    20    21   ar
    21    11    22   ar
    22    22    23   ar
    23    23    24   ar
    24    24    25    1
    25     6     1   ar
    26    24     9   ar
    27    25     4    1
    28    21    12   ar
    29    20    15   ar
    30     1    26    1
    31     2    27    1
    32     3    28    1
    33     6    29    1
    34     7    30    1
    35     7    31    1
    36     8    32    1
    37     8    33    1
    38    10    34    1
    39    13    35    1
    40    17    36    1
    41    18    37    1
    42    19    38    1
    43    21    39    1
    44    22    40    1
    45    23    41    1
    46    25    42    1
