@<TRIPOS>MOLECULE
*****
 41 47 0 0 0
SMALL
GASTEIGER

@<TRIPOS>ATOM
      1 SI          0.6398   -3.9924    2.3071 Si      1  UNL1        0.0000
      2 C          -0.8546   -3.0140    1.7528 C.2     1  UNL1        0.0000
      3 C          -0.5028   -1.8867    1.0968 C.ar    1  UNL1        0.0000
      4 C          -1.4416   -0.8880    0.5261 C.ar    1  UNL1        0.0000
      5 C          -2.8419   -1.0371    0.6243 C.ar    1  UNL1        0.0000
      6 C          -3.7333   -0.0968    0.0871 C.ar    1  UNL1        0.0000
      7 C          -5.1395   -0.2819    0.2062 C.ar    1  UNL1        0.0000
      8 C          -6.1001    0.6120   -0.3035 C.ar    1  UNL1        0.0000
      9 C          -5.5982    1.7524   -0.9684 C.ar    1  UNL1        0.0000
     10 N          -6.3423    2.7213   -1.5233 N.ar    1  UNL1        0.0000
     11 S          -5.2764    3.8185   -2.1679 S.2     1  UNL1        0.0000
     12 N          -3.8275    3.1151   -1.7727 N.ar    1  UNL1        0.0000
     13 C          -4.1148    1.9785   -1.1119 C.ar    1  UNL1        0.0000
     14 C          -3.1789    1.0311   -0.5710 C.ar    1  UNL1        0.0000
     15 C          -1.7805    1.1892   -0.6743 C.ar    1  UNL1        0.0000
     16 C          -0.8910    0.2415   -0.1328 C.ar    1  UNL1        0.0000
     17 C           0.5817    0.4231   -0.2503 C.ar    1  UNL1        0.0000
     18 N           0.9952    1.5431   -0.9025 N.ar    1  UNL1        0.0000
     19 C           2.3293    1.7507   -1.0338 C.ar    1  UNL1        0.0000
     20 C           3.3145    0.8999   -0.5489 C.ar    1  UNL1        0.0000
     21 C           2.8627   -0.2468    0.1190 C.ar    1  UNL1        0.0000
     22 C           1.4930   -0.5045    0.2795 C.ar    1  UNL1        0.0000
     23 C           0.9608   -1.6931    0.9725 C.ar    1  UNL1        0.0000
     24 C           1.7052   -2.6706    1.5325 C.2     1  UNL1        0.0000
     25 C           4.7606    1.1359   -0.6974 C.ar    1  UNL1        0.0000
     26 N           5.6881    0.3177   -0.2308 N.ar    1  UNL1        0.0000
     27 C           6.9493    0.7980   -0.5193 C.ar    1  UNL1        0.0000
     28 C           6.9858    1.9875   -1.2087 C.ar    1  UNL1        0.0000
     29 S           5.3904    2.5259   -1.5078 S.2     1  UNL1        0.0000
     30 H           0.7672   -4.0361    3.7832 H       1  UNL1        0.0000
     31 H           0.7490   -5.2955    1.6091 H       1  UNL1        0.0000
     32 H          -1.8411   -3.3840    1.9753 H       1  UNL1        0.0000
     33 H          -3.2531   -1.9064    1.1313 H       1  UNL1        0.0000
     34 H          -5.5122   -1.1685    0.7229 H       1  UNL1        0.0000
     35 H          -7.1642    0.4405   -0.1952 H       1  UNL1        0.0000
     36 H          -1.3874    2.0676   -1.1865 H       1  UNL1        0.0000
     37 H           2.5655    2.6675   -1.5668 H       1  UNL1        0.0000
     38 H           3.5995   -0.9416    0.5154 H       1  UNL1        0.0000
     39 H           2.7789   -2.7550    1.5724 H       1  UNL1        0.0000
     40 H           7.8172    0.2341   -0.1995 H       1  UNL1        0.0000
     41 H           7.8477    2.5480   -1.5404 H       1  UNL1        0.0000
@<TRIPOS>BOND
     1     1     2    1
     2     2     3    2
     3     3     4   ar
     4     4     5   ar
     5     5     6   ar
     6     6     7   ar
     7     7     8   ar
     8     8     9   ar
     9     9    10   ar
    10    10    11   ar
    11    11    12   ar
    12    12    13   ar
    13    13    14   ar
    14    14    15   ar
    15    15    16   ar
    16    16    17   ar
    17    17    18   ar
    18    18    19   ar
    19    19    20   ar
    20    20    21   ar
    21    21    22   ar
    22    22    23   ar
    23    23    24    2
    24    20    25    1
    25    25    26   ar
    26    26    27   ar
    27    27    28   ar
    28    28    29   ar
    29    24     1    1
    30    29    25   ar
    31    23     3   ar
    32    16     4   ar
    33    22    17   ar
    34    14     6   ar
    35    13     9   ar
    36     1    30    1
    37     1    31    1
    38     2    32    1
    39     5    33    1
    40     7    34    1
    41     8    35    1
    42    15    36    1
    43    19    37    1
    44    21    38    1
    45    24    39    1
    46    27    40    1
    47    28    41    1
