@<TRIPOS>MOLECULE
*****
 40 44 0 0 0
SMALL
GASTEIGER

@<TRIPOS>ATOM
      1 C          -6.0351    1.5359    1.4844 C.ar    1  UNL1       -0.0614
      2 C          -6.2857    0.2723    0.9728 C.ar    1  UNL1       -0.0600
      3 C          -5.2382   -0.4707    0.4258 C.ar    1  UNL1       -0.0403
      4 C          -3.9183    0.0249    0.3741 C.ar    1  UNL1        0.0345
      5 C          -3.6707    1.2951    0.9138 C.ar    1  UNL1       -0.0259
      6 C          -4.7388    2.0438    1.4523 C.ar    1  UNL1       -0.0568
      7 C          -2.3035    1.9266    0.9025 C.3     1  UNL1       -0.0219
      8 C          -1.2375    1.0153    1.4955 C.3     1  UNL1       -0.0219
      9 C          -0.7050    0.0246    0.4933 C.ar    1  UNL1       -0.0253
     10 C           0.6993   -0.0799    0.3508 C.ar    1  UNL1       -0.0476
     11 C           1.3129   -0.9798   -0.5387 C.ar    1  UNL1        0.0023
     12 C           2.7838   -1.0491   -0.6499 C.ar    1  UNL1        0.0915
     13 C           3.4777   -2.1814   -1.0540 C.ar    1  UNL1        0.0561
     14 N           4.8263   -2.2332   -1.1564 N.ar    1  UNL1       -0.2310
     15 C           5.4962   -1.1211   -0.8375 C.ar    1  UNL1        0.1977
     16 N           6.8333   -1.1407   -0.9288 N.ar    1  UNL1       -0.2316
     17 C           7.4842   -0.0075   -0.5976 C.ar    1  UNL1        0.0482
     18 C           6.8173    1.1236   -0.1829 C.ar    1  UNL1        0.0482
     19 N           5.4734    1.1663   -0.0836 N.ar    1  UNL1       -0.2316
     20 C           4.8035    0.0517   -0.4092 C.ar    1  UNL1        0.1983
     21 N           3.4675    0.0737   -0.3192 N.ar    1  UNL1       -0.2232
     22 C           0.4598   -1.7822   -1.3037 C.ar    1  UNL1       -0.0508
     23 C          -0.9314   -1.6975   -1.1620 C.ar    1  UNL1       -0.0397
     24 C          -1.5396   -0.8090   -0.2566 C.ar    1  UNL1        0.0346
     25 N          -2.9435   -0.8120   -0.1998 N.pl3   1  UNL1       -0.3141
     26 H          -6.8426    2.1265    1.9081 H       1  UNL1        0.0618
     27 H          -7.2913   -0.1380    0.9955 H       1  UNL1        0.0618
     28 H          -5.4646   -1.4598    0.0341 H       1  UNL1        0.0636
     29 H          -4.5604    3.0387    1.8559 H       1  UNL1        0.0621
     30 H          -2.3270    2.8422    1.5078 H       1  UNL1        0.0317
     31 H          -2.0550    2.2389   -0.1197 H       1  UNL1        0.0317
     32 H          -1.6022    0.4776    2.3799 H       1  UNL1        0.0317
     33 H          -0.4146    1.6546    1.8408 H       1  UNL1        0.0317
     34 H           1.3357    0.5672    0.9572 H       1  UNL1        0.0627
     35 H           2.9738   -3.1097   -1.3014 H       1  UNL1        0.0852
     36 H           8.5652   -0.0374   -0.6762 H       1  UNL1        0.0846
     37 H           7.3447    2.0330    0.0829 H       1  UNL1        0.0846
     38 H           0.8506   -2.4792   -2.0410 H       1  UNL1        0.0625
     39 H          -1.5476   -2.3417   -1.7862 H       1  UNL1        0.0636
     40 H          -3.3527   -1.6024   -0.6847 H       1  UNL1        0.1522
@<TRIPOS>BOND
     1     1     2   ar
     2     2     3   ar
     3     3     4   ar
     4     4     5   ar
     5     5     6   ar
     6     5     7    1
     7     7     8    1
     8     8     9    1
     9     9    10   ar
    10    10    11   ar
    11    11    12    1
    12    12    13   ar
    13    13    14   ar
    14    14    15   ar
    15    15    16   ar
    16    16    17   ar
    17    17    18   ar
    18    18    19   ar
    19    19    20   ar
    20    20    21   ar
    21    11    22   ar
    22    22    23   ar
    23    23    24   ar
    24    24    25    1
    25     6     1   ar
    26    24     9   ar
    27    25     4    1
    28    21    12   ar
    29    20    15   ar
    30     1    26    1
    31     2    27    1
    32     3    28    1
    33     6    29    1
    34     7    30    1
    35     7    31    1
    36     8    32    1
    37     8    33    1
    38    10    34    1
    39    13    35    1
    40    17    36    1
    41    18    37    1
    42    22    38    1
    43    23    39    1
    44    25    40    1
