@<TRIPOS>MOLECULE
*****
 34 37 0 0 0
SMALL
GASTEIGER

@<TRIPOS>ATOM
      1 C          -5.0969    0.4575   -0.7768 C.ar    1  UNL1       -0.0614
      2 C          -4.9752   -0.7425   -0.0939 C.ar    1  UNL1       -0.0600
      3 C          -3.7248   -1.1424    0.3806 C.ar    1  UNL1       -0.0403
      4 C          -2.5673   -0.3591    0.1882 C.ar    1  UNL1        0.0345
      5 C          -2.6966    0.8422   -0.5232 C.ar    1  UNL1       -0.0259
      6 C          -3.9672    1.2444   -0.9869 C.ar    1  UNL1       -0.0568
      7 C          -1.5308    1.7603   -0.7788 C.3     1  UNL1       -0.0219
      8 C          -0.3475    1.0356   -1.4061 C.3     1  UNL1       -0.0219
      9 C           0.5188    0.3514   -0.3803 C.ar    1  UNL1       -0.0253
     10 C           1.9122    0.5914   -0.4260 C.ar    1  UNL1       -0.0489
     11 C           2.7966   -0.0079    0.4789 C.ar    1  UNL1       -0.0130
     12 C           4.2194    0.2644    0.4022 C.ar    1  UNL1        0.0408
     13 C           5.0426    0.6288   -0.6876 C.ar    1  UNL1        0.0777
     14 N           6.3173    0.8032   -0.3293 N.ar    1  UNL1       -0.0862
     15 O           6.3473    0.5545    1.0331 O.2     1  UNL1       -0.3623
     16 C           5.0987    0.2378    1.4595 C.ar    1  UNL1        0.1319
     17 C           2.2713   -0.8709    1.4387 C.ar    1  UNL1       -0.0521
     18 C           0.8964   -1.1254    1.4803 C.ar    1  UNL1       -0.0397
     19 C          -0.0023   -0.5328    0.5722 C.ar    1  UNL1        0.0346
     20 N          -1.3615   -0.8621    0.7105 N.pl3   1  UNL1       -0.3141
     21 H          -6.0655    0.7826   -1.1464 H       1  UNL1        0.0618
     22 H          -5.8473   -1.3684    0.0731 H       1  UNL1        0.0618
     23 H          -3.6598   -2.0899    0.9109 H       1  UNL1        0.0636
     24 H          -4.0818    2.1847   -1.5229 H       1  UNL1        0.0621
     25 H          -1.8418    2.5479   -1.4775 H       1  UNL1        0.0317
     26 H          -1.2546    2.2671    0.1545 H       1  UNL1        0.0317
     27 H          -0.6658    0.3040   -2.1595 H       1  UNL1        0.0317
     28 H           0.2515    1.7857   -1.9386 H       1  UNL1        0.0317
     29 H           2.2990    1.2750   -1.1800 H       1  UNL1        0.0627
     30 H           4.7746    0.7692   -1.7251 H       1  UNL1        0.0870
     31 H           5.0127    0.0361    2.5168 H       1  UNL1        0.1064
     32 H           2.9127   -1.3731    2.1582 H       1  UNL1        0.0624
     33 H           0.5271   -1.8065    2.2444 H       1  UNL1        0.0636
     34 H          -1.5116   -1.6451    1.3369 H       1  UNL1        0.1522
@<TRIPOS>BOND
     1     1     2   ar
     2     2     3   ar
     3     3     4   ar
     4     4     5   ar
     5     5     6   ar
     6     5     7    1
     7     7     8    1
     8     8     9    1
     9     9    10   ar
    10    10    11   ar
    11    11    12    1
    12    12    13   ar
    13    13    14   ar
    14    14    15   ar
    15    15    16   ar
    16    11    17   ar
    17    17    18   ar
    18    18    19   ar
    19    19    20    1
    20     6     1   ar
    21    19     9   ar
    22    20     4    1
    23    16    12   ar
    24     1    21    1
    25     2    22    1
    26     3    23    1
    27     6    24    1
    28     7    25    1
    29     7    26    1
    30     8    27    1
    31     8    28    1
    32    10    29    1
    33    13    30    1
    34    16    31    1
    35    17    32    1
    36    18    33    1
    37    20    34    1
