@<TRIPOS>MOLECULE
*****
 34 37 0 0 0
SMALL
GASTEIGER

@<TRIPOS>ATOM
      1 C          -5.1281   -0.6987   -0.5197 C.ar    1  UNL1       -0.0614
      2 C          -5.0504    0.6794   -0.3928 C.ar    1  UNL1       -0.0600
      3 C          -3.8200    1.2786   -0.1181 C.ar    1  UNL1       -0.0403
      4 C          -2.6389    0.5225    0.0371 C.ar    1  UNL1        0.0345
      5 C          -2.7238   -0.8689   -0.1143 C.ar    1  UNL1       -0.0259
      6 C          -3.9747   -1.4662   -0.3787 C.ar    1  UNL1       -0.0568
      7 C          -1.5301   -1.7740    0.0410 C.3     1  UNL1       -0.0219
      8 C          -0.3542   -1.3390   -0.8230 C.3     1  UNL1       -0.0219
      9 C           0.4728   -0.2634   -0.1691 C.ar    1  UNL1       -0.0253
     10 C           1.8723   -0.4559   -0.1033 C.ar    1  UNL1       -0.0476
     11 C           2.7312    0.4919    0.4688 C.ar    1  UNL1        0.0012
     12 C           4.1692    0.2297    0.5115 C.ar    1  UNL1        0.0781
     13 C           5.1398    1.1905    0.7324 C.ar    1  UNL1        0.0031
     14 S           6.7024    0.4794    0.7020 S.2     1  UNL1       -0.0833
     15 C           5.9790   -1.0404    0.3883 C.ar    1  UNL1        0.0654
     16 N           4.6679   -1.0517    0.3052 N.ar    1  UNL1       -0.2474
     17 C           2.1641    1.6546    0.9884 C.ar    1  UNL1       -0.0508
     18 C           0.7811    1.8599    0.9158 C.ar    1  UNL1       -0.0397
     19 C          -0.0868    0.9191    0.3279 C.ar    1  UNL1        0.0346
     20 N          -1.4567    1.2336    0.3133 N.pl3   1  UNL1       -0.3141
     21 H          -6.0807   -1.1778   -0.7283 H       1  UNL1        0.0618
     22 H          -5.9415    1.2907   -0.5048 H       1  UNL1        0.0618
     23 H          -3.7893    2.3618   -0.0259 H       1  UNL1        0.0636
     24 H          -4.0542   -2.5470   -0.4787 H       1  UNL1        0.0621
     25 H          -1.2584   -1.8395    1.1022 H       1  UNL1        0.0317
     26 H          -1.8081   -2.7896   -0.2697 H       1  UNL1        0.0317
     27 H           0.2746   -2.2231   -0.9906 H       1  UNL1        0.0317
     28 H          -0.6769   -0.9976   -1.8147 H       1  UNL1        0.0317
     29 H           2.3014   -1.3719   -0.5099 H       1  UNL1        0.0627
     30 H           5.0301    2.2514    0.8998 H       1  UNL1        0.0715
     31 H           6.5729   -1.9364    0.2646 H       1  UNL1        0.0907
     32 H           2.7709    2.4168    1.4676 H       1  UNL1        0.0625
     33 H           0.3797    2.7790    1.3376 H       1  UNL1        0.0636
     34 H          -1.6365    2.2021    0.5517 H       1  UNL1        0.1522
@<TRIPOS>BOND
     1     1     2   ar
     2     2     3   ar
     3     3     4   ar
     4     4     5   ar
     5     5     6   ar
     6     5     7    1
     7     7     8    1
     8     8     9    1
     9     9    10   ar
    10    10    11   ar
    11    11    12    1
    12    12    13   ar
    13    13    14   ar
    14    14    15   ar
    15    15    16   ar
    16    11    17   ar
    17    17    18   ar
    18    18    19   ar
    19    19    20    1
    20     6     1   ar
    21    19     9   ar
    22    20     4    1
    23    16    12   ar
    24     1    21    1
    25     2    22    1
    26     3    23    1
    27     6    24    1
    28     7    25    1
    29     7    26    1
    30     8    27    1
    31     8    28    1
    32    10    29    1
    33    13    30    1
    34    15    31    1
    35    17    32    1
    36    18    33    1
    37    20    34    1
