@<TRIPOS>MOLECULE
*****
 40 44 0 0 0
SMALL
GASTEIGER

@<TRIPOS>ATOM
      1 C          -6.4777   -0.3089    0.5502 C.ar    1  UNL1       -0.0614
      2 C          -6.3484    1.0575    0.3558 C.ar    1  UNL1       -0.0600
      3 C          -5.0910    1.5998    0.0851 C.ar    1  UNL1       -0.0403
      4 C          -3.9337    0.7973    0.0005 C.ar    1  UNL1        0.0345
      5 C          -4.0710   -0.5805    0.2210 C.ar    1  UNL1       -0.0259
      6 C          -5.3485   -1.1210    0.4805 C.ar    1  UNL1       -0.0568
      7 C          -2.9060   -1.5317    0.1458 C.3     1  UNL1       -0.0219
      8 C          -1.7381   -1.0906    1.0176 C.3     1  UNL1       -0.0219
      9 C          -0.8559   -0.0807    0.3307 C.ar    1  UNL1       -0.0252
     10 C           0.5378   -0.3245    0.3133 C.ar    1  UNL1       -0.0445
     11 C           1.4397    0.5638   -0.2867 C.ar    1  UNL1        0.0373
     12 C           2.8792    0.3154   -0.3145 C.ar    1  UNL1        0.2284
     13 N           3.8390    1.0594   -0.8386 N.ar    1  UNL1       -0.2090
     14 C           4.9829    0.3499   -0.5763 C.ar    1  UNL1        0.1099
     15 C           6.3241    0.6169   -0.8793 C.ar    1  UNL1       -0.0326
     16 C           7.2920   -0.3150   -0.4733 C.ar    1  UNL1       -0.0595
     17 C           6.9313   -1.4805    0.2158 C.ar    1  UNL1       -0.0582
     18 C           5.5946   -1.7606    0.5256 C.ar    1  UNL1       -0.0171
     19 C           4.6689   -0.8132    0.1060 C.ar    1  UNL1        0.1557
     20 O           3.3170   -0.8440    0.2789 O.2     1  UNL1       -0.4353
     21 C           0.9251    1.7199   -0.8728 C.ar    1  UNL1       -0.0477
     22 C          -0.4492    1.9768   -0.8491 C.ar    1  UNL1       -0.0396
     23 C          -1.3624    1.0932   -0.2415 C.ar    1  UNL1        0.0346
     24 N          -2.7206    1.4534   -0.2768 N.pl3   1  UNL1       -0.3141
     25 H          -7.4516   -0.7440    0.7563 H       1  UNL1        0.0618
     26 H          -7.2200    1.7035    0.4120 H       1  UNL1        0.0618
     27 H          -5.0198    2.6753   -0.0605 H       1  UNL1        0.0636
     28 H          -5.4687   -2.1919    0.6333 H       1  UNL1        0.0621
     29 H          -3.2269   -2.5195    0.5016 H       1  UNL1        0.0317
     30 H          -2.6097   -1.6626   -0.9027 H       1  UNL1        0.0317
     31 H          -2.0739   -0.6851    1.9805 H       1  UNL1        0.0317
     32 H          -1.1457   -1.9852    1.2496 H       1  UNL1        0.0317
     33 H           0.9197   -1.2319    0.7797 H       1  UNL1        0.0628
     34 H           6.5991    1.5198   -1.4127 H       1  UNL1        0.0640
     35 H           8.3400   -0.1268   -0.6986 H       1  UNL1        0.0618
     36 H           7.7060   -2.1836    0.5172 H       1  UNL1        0.0619
     37 H           5.2963   -2.6552    1.0570 H       1  UNL1        0.0655
     38 H           1.5921    2.4339   -1.3531 H       1  UNL1        0.0626
     39 H          -0.8045    2.8905   -1.3208 H       1  UNL1        0.0636
     40 H          -2.8613    2.4105   -0.5804 H       1  UNL1        0.1522
@<TRIPOS>BOND
     1     1     2   ar
     2     2     3   ar
     3     3     4   ar
     4     4     5   ar
     5     5     6   ar
     6     5     7    1
     7     7     8    1
     8     8     9    1
     9     9    10   ar
    10    10    11   ar
    11    11    12    1
    12    12    13   ar
    13    13    14   ar
    14    14    15   ar
    15    15    16   ar
    16    16    17   ar
    17    17    18   ar
    18    18    19   ar
    19    19    20   ar
    20    11    21   ar
    21    21    22   ar
    22    22    23   ar
    23    23    24    1
    24     6     1   ar
    25    23     9   ar
    26    24     4    1
    27    20    12   ar
    28    19    14   ar
    29     1    25    1
    30     2    26    1
    31     3    27    1
    32     6    28    1
    33     7    29    1
    34     7    30    1
    35     8    31    1
    36     8    32    1
    37    10    33    1
    38    15    34    1
    39    16    35    1
    40    17    36    1
    41    18    37    1
    42    21    38    1
    43    22    39    1
    44    24    40    1
