@<TRIPOS>MOLECULE
*****
 33 36 0 0 0
SMALL
GASTEIGER

@<TRIPOS>ATOM
      1 C          -4.9773    0.8196   -0.3887 C.ar    1  UNL1       -0.0614
      2 C          -4.9135   -0.1415    0.6080 C.ar    1  UNL1       -0.0600
      3 C          -3.6838   -0.7158    0.9347 C.ar    1  UNL1       -0.0403
      4 C          -2.4900   -0.3491    0.2784 C.ar    1  UNL1        0.0345
      5 C          -2.5613    0.6399   -0.7129 C.ar    1  UNL1       -0.0259
      6 C          -3.8111    1.2047   -1.0453 C.ar    1  UNL1       -0.0568
      7 C          -1.3530    1.1010   -1.4842 C.3     1  UNL1       -0.0219
      8 C          -0.2047    1.5144   -0.5736 C.3     1  UNL1       -0.0219
      9 C           0.6263    0.3403   -0.1261 C.ar    1  UNL1       -0.0252
     10 C           2.0292    0.4266   -0.2826 C.ar    1  UNL1       -0.0460
     11 C           2.8849   -0.6073    0.1185 C.ar    1  UNL1        0.0228
     12 C           4.3278   -0.4881   -0.0644 C.ar    1  UNL1        0.2018
     13 N           4.9102    0.6264   -0.6355 N.ar    1  UNL1       -0.1942
     14 C           6.1820    0.3218   -0.6054 C.ar    1  UNL1        0.2147
     15 O           6.4448   -0.8913   -0.0629 O.2     1  UNL1       -0.3411
     16 N           5.2131   -1.4339    0.2986 N.ar    1  UNL1       -0.0564
     17 C           2.3183   -1.7447    0.6927 C.ar    1  UNL1       -0.0492
     18 C           0.9328   -1.8326    0.8634 C.ar    1  UNL1       -0.0396
     19 C           0.0638   -0.7952    0.4708 C.ar    1  UNL1        0.0346
     20 N          -1.3101   -0.9945    0.6914 N.pl3   1  UNL1       -0.3141
     21 H          -5.9289    1.2704   -0.6560 H       1  UNL1        0.0618
     22 H          -5.8145   -0.4481    1.1317 H       1  UNL1        0.0618
     23 H          -3.6641   -1.4656    1.7225 H       1  UNL1        0.0636
     24 H          -3.8801    1.9589   -1.8270 H       1  UNL1        0.0621
     25 H          -1.6259    1.9769   -2.0871 H       1  UNL1        0.0317
     26 H          -1.0537    0.3192   -2.1938 H       1  UNL1        0.0317
     27 H           0.4303    2.2078   -1.1404 H       1  UNL1        0.0317
     28 H          -0.5565    2.0678    0.3063 H       1  UNL1        0.0317
     29 H           2.4598    1.3224   -0.7300 H       1  UNL1        0.0628
     30 H           7.0278    0.8978   -0.9485 H       1  UNL1        0.1283
     31 H           2.9424   -2.5753    1.0156 H       1  UNL1        0.0625
     32 H           0.5320   -2.7385    1.3134 H       1  UNL1        0.0636
     33 H          -1.4967   -1.7944    1.2857 H       1  UNL1        0.1522
@<TRIPOS>BOND
     1     1     2   ar
     2     2     3   ar
     3     3     4   ar
     4     4     5   ar
     5     5     6   ar
     6     5     7    1
     7     7     8    1
     8     8     9    1
     9     9    10   ar
    10    10    11   ar
    11    11    12    1
    12    12    13   ar
    13    13    14   ar
    14    14    15   ar
    15    15    16   ar
    16    11    17   ar
    17    17    18   ar
    18    18    19   ar
    19    19    20    1
    20     6     1   ar
    21    19     9   ar
    22    20     4    1
    23    16    12   ar
    24     1    21    1
    25     2    22    1
    26     3    23    1
    27     6    24    1
    28     7    25    1
    29     7    26    1
    30     8    27    1
    31     8    28    1
    32    10    29    1
    33    14    30    1
    34    17    31    1
    35    18    32    1
    36    20    33    1
