@<TRIPOS>MOLECULE
*****
 41 46 0 0 0
SMALL
GASTEIGER

@<TRIPOS>ATOM
      1 C          -7.4406   -0.2868   -0.1268 C.ar    1  UNL1       -0.0611
      2 C          -6.8219   -1.4914    0.1771 C.ar    1  UNL1       -0.0611
      3 C          -5.4259   -1.5703    0.2184 C.ar    1  UNL1       -0.0534
      4 C          -4.6009   -0.4468   -0.0428 C.ar    1  UNL1       -0.0073
      5 C          -5.2575    0.7629   -0.3485 C.ar    1  UNL1        0.0008
      6 C          -6.6626    0.8371   -0.3888 C.ar    1  UNL1       -0.0526
      7 C          -4.4690    1.8771   -0.6080 C.ar    1  UNL1        0.0360
      8 N          -3.1193    1.8878   -0.5893 N.ar    1  UNL1       -0.2543
      9 C          -2.4860    0.7439   -0.3000 C.ar    1  UNL1        0.0722
     10 C          -1.0939    0.7730   -0.2851 C.ar    1  UNL1       -0.0265
     11 C          -0.2932   -0.3477    0.0011 C.ar    1  UNL1        0.0024
     12 C           1.1960   -0.3061    0.0145 C.ar    1  UNL1        0.0730
     13 C           1.9385    0.8465   -0.2551 C.ar    1  UNL1       -0.0117
     14 C           3.3301    0.7244   -0.2033 C.ar    1  UNL1        0.0510
     15 N           4.3173    1.6578   -0.4155 N.ar    1  UNL1       -0.3540
     16 C           5.5616    1.0947   -0.2584 C.ar    1  UNL1        0.0504
     17 C           6.8318    1.6551   -0.3751 C.ar    1  UNL1       -0.0196
     18 C           7.8813    0.7788   -0.1445 C.ar    1  UNL1        0.0295
     19 N           7.7449   -0.5276    0.1721 N.ar    1  UNL1       -0.2625
     20 C           6.4978   -1.0494    0.2798 C.ar    1  UNL1        0.0373
     21 C           5.3687   -0.2482    0.0664 C.ar    1  UNL1        0.0269
     22 C           3.9583   -0.4791    0.1004 C.ar    1  UNL1        0.0270
     23 C           3.1539   -1.5901    0.3589 C.ar    1  UNL1        0.0380
     24 N           1.8013   -1.4881    0.3126 N.ar    1  UNL1       -0.2542
     25 C          -0.9815   -1.5364    0.2804 C.ar    1  UNL1       -0.0519
     26 C          -2.3794   -1.5964    0.2729 C.ar    1  UNL1       -0.0514
     27 C          -3.1653   -0.4599   -0.0169 C.ar    1  UNL1        0.0081
     28 H          -8.5249   -0.2216   -0.1598 H       1  UNL1        0.0618
     29 H          -7.4208   -2.3751    0.3833 H       1  UNL1        0.0618
     30 H          -4.9903   -2.5359    0.4610 H       1  UNL1        0.0624
     31 H          -7.1589    1.7760   -0.6259 H       1  UNL1        0.0624
     32 H          -4.9163    2.8383   -0.8497 H       1  UNL1        0.0836
     33 H          -0.6396    1.7334   -0.5124 H       1  UNL1        0.0645
     34 H           1.4825    1.7970   -0.4943 H       1  UNL1        0.0660
     35 H           4.1513    2.6252   -0.6542 H       1  UNL1        0.1659
     36 H           6.9975    2.6945   -0.6261 H       1  UNL1        0.0653
     37 H           8.9101    1.1239   -0.2125 H       1  UNL1        0.0830
     38 H           6.4389   -2.1011    0.5356 H       1  UNL1        0.0836
     39 H           3.5518   -2.5681    0.6039 H       1  UNL1        0.0836
     40 H          -0.4284   -2.4466    0.5113 H       1  UNL1        0.0624
     41 H          -2.8374   -2.5547    0.4996 H       1  UNL1        0.0624
@<TRIPOS>BOND
     1     1     2   ar
     2     2     3   ar
     3     3     4   ar
     4     4     5   ar
     5     5     6   ar
     6     5     7   ar
     7     7     8   ar
     8     8     9   ar
     9     9    10   ar
    10    10    11   ar
    11    11    12    1
    12    12    13   ar
    13    13    14   ar
    14    14    15   ar
    15    15    16   ar
    16    16    17   ar
    17    17    18   ar
    18    18    19   ar
    19    19    20   ar
    20    20    21   ar
    21    21    22   ar
    22    22    23   ar
    23    23    24   ar
    24    11    25   ar
    25    25    26   ar
    26    26    27   ar
    27     6     1   ar
    28    27     9   ar
    29    27     4   ar
    30    24    12   ar
    31    22    14   ar
    32    21    16   ar
    33     1    28    1
    34     2    29    1
    35     3    30    1
    36     6    31    1
    37     7    32    1
    38    10    33    1
    39    13    34    1
    40    15    35    1
    41    17    36    1
    42    18    37    1
    43    20    38    1
    44    23    39    1
    45    25    40    1
    46    26    41    1
