@<TRIPOS>MOLECULE
*****
 36 40 0 0 0
SMALL
GASTEIGER

@<TRIPOS>ATOM
      1 C           6.3255    0.2468   -0.1990 C.ar    1  UNL1       -0.0611
      2 C           5.7136    1.3390    0.4000 C.ar    1  UNL1       -0.0611
      3 C           4.3193    1.3936    0.4977 C.ar    1  UNL1       -0.0534
      4 C           3.4890    0.3573   -0.0004 C.ar    1  UNL1       -0.0073
      5 C           4.1391   -0.7392   -0.6035 C.ar    1  UNL1        0.0008
      6 C           5.5424   -0.7893   -0.6994 C.ar    1  UNL1       -0.0526
      7 C           3.3462   -1.7670   -1.0991 C.ar    1  UNL1        0.0360
      8 N           1.9977   -1.7942   -1.0462 N.ar    1  UNL1       -0.2543
      9 C           1.3709   -0.7579   -0.4756 C.ar    1  UNL1        0.0722
     10 C          -0.0187   -0.8027   -0.4299 C.ar    1  UNL1       -0.0266
     11 C          -0.7966    0.2156    0.1388 C.ar    1  UNL1        0.0004
     12 C          -2.2678    0.1483    0.1770 C.ar    1  UNL1        0.0476
     13 C          -3.2016    1.0402    0.6877 C.ar    1  UNL1       -0.0272
     14 C          -4.5078    0.5177    0.4807 C.ar    1  UNL1        0.0183
     15 C          -5.8025    0.9607    0.7757 C.ar    1  UNL1        0.0367
     16 N          -6.8807    0.2097    0.4384 N.ar    1  UNL1       -0.2625
     17 C          -6.6806   -0.9720   -0.1867 C.ar    1  UNL1        0.0295
     18 C          -5.4410   -1.4970   -0.5216 C.ar    1  UNL1       -0.0196
     19 C          -4.3527   -0.7046   -0.1633 C.ar    1  UNL1        0.0498
     20 N          -3.0031   -0.9041   -0.3342 N.ar    1  UNL1       -0.3541
     21 C          -0.1223    1.3120    0.6761 C.ar    1  UNL1       -0.0519
     22 C           1.2744    1.3811    0.6426 C.ar    1  UNL1       -0.0514
     23 C           2.0547    0.3515    0.0678 C.ar    1  UNL1        0.0081
     24 H           7.4086    0.2008   -0.2768 H       1  UNL1        0.0618
     25 H           6.3170    2.1533    0.7938 H       1  UNL1        0.0618
     26 H           3.8899    2.2701    0.9753 H       1  UNL1        0.0624
     27 H           6.0336   -1.6404   -1.1668 H       1  UNL1        0.0624
     28 H           3.7887   -2.6389   -1.5750 H       1  UNL1        0.0836
     29 H          -0.4848   -1.6821   -0.8644 H       1  UNL1        0.0645
     30 H          -2.9788    1.9838    1.1678 H       1  UNL1        0.0645
     31 H          -6.0064    1.9006    1.2751 H       1  UNL1        0.0836
     32 H          -7.5900   -1.5178   -0.4255 H       1  UNL1        0.0830
     33 H          -5.3372   -2.4499   -1.0228 H       1  UNL1        0.0653
     34 H          -2.6133   -1.7215   -0.7791 H       1  UNL1        0.1659
     35 H          -0.6653    2.1358    1.1318 H       1  UNL1        0.0624
     36 H           1.7408    2.2606    1.0772 H       1  UNL1        0.0624
@<TRIPOS>BOND
     1     1     2   ar
     2     2     3   ar
     3     3     4   ar
     4     4     5   ar
     5     5     6   ar
     6     5     7   ar
     7     7     8   ar
     8     8     9   ar
     9     9    10   ar
    10    10    11   ar
    11    11    12    1
    12    12    13   ar
    13    13    14   ar
    14    14    15   ar
    15    15    16   ar
    16    16    17   ar
    17    17    18   ar
    18    18    19   ar
    19    19    20   ar
    20    11    21   ar
    21    21    22   ar
    22    22    23   ar
    23     6     1   ar
    24    23     9   ar
    25    23     4   ar
    26    20    12   ar
    27    19    14   ar
    28     1    24    1
    29     2    25    1
    30     3    26    1
    31     6    27    1
    32     7    28    1
    33    10    29    1
    34    13    30    1
    35    15    31    1
    36    17    32    1
    37    18    33    1
    38    20    34    1
    39    21    35    1
    40    22    36    1
