@<TRIPOS>MOLECULE
*****
 41 45 0 0 0
SMALL
GASTEIGER

@<TRIPOS>ATOM
      1 C          -7.4101    0.0774   -0.1253 C.ar    1  UNL1       -0.0611
      2 C          -6.8080   -1.0345   -0.6972 C.ar    1  UNL1       -0.0611
      3 C          -5.4134   -1.1423   -0.7179 C.ar    1  UNL1       -0.0534
      4 C          -4.5726   -0.1415   -0.1671 C.ar    1  UNL1       -0.0073
      5 C          -5.2133    0.9761    0.4069 C.ar    1  UNL1        0.0008
      6 C          -6.6169    1.0798    0.4251 C.ar    1  UNL1       -0.0526
      7 C          -4.4113    1.9703    0.9533 C.ar    1  UNL1        0.0360
      8 N          -3.0624    1.9461    0.9759 N.ar    1  UNL1       -0.2543
      9 C          -2.4435    0.8899    0.4337 C.ar    1  UNL1        0.0721
     10 C          -1.0541    0.8784    0.4639 C.ar    1  UNL1       -0.0280
     11 C          -0.2872   -0.1691   -0.0700 C.ar    1  UNL1       -0.0158
     12 C           1.1833   -0.1422   -0.0145 C.ar    1  UNL1       -0.0178
     13 C           1.8600    0.0776    1.1921 C.ar    1  UNL1       -0.0534
     14 C           3.2602    0.1021    1.2422 C.ar    1  UNL1       -0.0519
     15 C           4.0444   -0.0953    0.0924 C.ar    1  UNL1        0.0019
     16 C           5.5189   -0.0701    0.1725 C.ar    1  UNL1        0.0890
     17 C           6.3549   -0.7720   -0.6976 C.ar    1  UNL1        0.0535
     18 N           7.7115   -0.7460   -0.6267 N.ar    1  UNL1       -0.2596
     19 C           8.2175    0.0152    0.3656 C.ar    1  UNL1        0.0457
     20 C           7.4092    0.7113    1.2448 C.ar    1  UNL1        0.0464
     21 N           6.0581    0.6818    1.1709 N.ar    1  UNL1       -0.2520
     22 C           3.3588   -0.3043   -1.1164 C.ar    1  UNL1       -0.0519
     23 C           1.9573   -0.3299   -1.1680 C.ar    1  UNL1       -0.0534
     24 C          -0.9710   -1.2368   -0.6532 C.ar    1  UNL1       -0.0533
     25 C          -2.3678   -1.2494   -0.6960 C.ar    1  UNL1       -0.0514
     26 C          -3.1374   -0.1908   -0.1561 C.ar    1  UNL1        0.0081
     27 H          -8.4932    0.1650   -0.1071 H       1  UNL1        0.0618
     28 H          -7.4192   -1.8229   -1.1296 H       1  UNL1        0.0618
     29 H          -4.9922   -2.0324   -1.1771 H       1  UNL1        0.0624
     30 H          -7.1000    1.9471    0.8708 H       1  UNL1        0.0624
     31 H          -4.8456    2.8564    1.4100 H       1  UNL1        0.0836
     32 H          -0.5518    1.7329    0.9159 H       1  UNL1        0.0645
     33 H           1.3031    0.2257    2.1156 H       1  UNL1        0.0624
     34 H           3.7428    0.2766    2.2034 H       1  UNL1        0.0624
     35 H           5.9603   -1.4026   -1.4867 H       1  UNL1        0.0851
     36 H           9.2983    0.0501    0.4381 H       1  UNL1        0.0845
     37 H           7.8272    1.3179    2.0399 H       1  UNL1        0.0845
     38 H           3.9006   -0.4283   -2.0514 H       1  UNL1        0.0624
     39 H           1.4727   -0.4790   -2.1314 H       1  UNL1        0.0624
     40 H          -0.4230   -2.0798   -1.0698 H       1  UNL1        0.0624
     41 H          -2.8451   -2.1085   -1.1584 H       1  UNL1        0.0624
@<TRIPOS>BOND
     1     1     2   ar
     2     2     3   ar
     3     3     4   ar
     4     4     5   ar
     5     5     6   ar
     6     5     7   ar
     7     7     8   ar
     8     8     9   ar
     9     9    10   ar
    10    10    11   ar
    11    11    12    1
    12    12    13   ar
    13    13    14   ar
    14    14    15   ar
    15    15    16    1
    16    16    17   ar
    17    17    18   ar
    18    18    19   ar
    19    19    20   ar
    20    20    21   ar
    21    15    22   ar
    22    22    23   ar
    23    11    24   ar
    24    24    25   ar
    25    25    26   ar
    26     6     1   ar
    27    26     9   ar
    28    26     4   ar
    29    23    12   ar
    30    21    16   ar
    31     1    27    1
    32     2    28    1
    33     3    29    1
    34     6    30    1
    35     7    31    1
    36    10    32    1
    37    13    33    1
    38    14    34    1
    39    17    35    1
    40    19    36    1
    41    20    37    1
    42    22    38    1
    43    23    39    1
    44    24    40    1
    45    25    41    1
