@<TRIPOS>MOLECULE
*****
 35 39 0 0 0
SMALL
GASTEIGER

@<TRIPOS>ATOM
      1 C           6.0494   -0.3547    0.3368 C.ar    1  UNL1       -0.0611
      2 C           5.4953   -0.6568   -0.8991 C.ar    1  UNL1       -0.0611
      3 C           4.1065   -0.6400   -1.0664 C.ar    1  UNL1       -0.0534
      4 C           3.2240   -0.3204   -0.0031 C.ar    1  UNL1       -0.0073
      5 C           3.8164   -0.0179    1.2405 C.ar    1  UNL1        0.0008
      6 C           5.2143   -0.0362    1.4036 C.ar    1  UNL1       -0.0526
      7 C           2.9726    0.2985    2.2980 C.ar    1  UNL1        0.0360
      8 N           1.6257    0.3376    2.2240 N.ar    1  UNL1       -0.2543
      9 C           1.0531    0.0533    1.0478 C.ar    1  UNL1        0.0721
     10 C          -0.3345    0.0991    0.9858 C.ar    1  UNL1       -0.0280
     11 C          -1.0568   -0.1799   -0.1850 C.ar    1  UNL1       -0.0158
     12 C          -2.5291   -0.1238   -0.2055 C.ar    1  UNL1       -0.0156
     13 C          -3.2892   -0.8244    0.7535 C.ar    1  UNL1       -0.0519
     14 C          -4.6919   -0.8003    0.7707 C.ar    1  UNL1       -0.0342
     15 C          -5.3058   -0.0399   -0.2215 C.ar    1  UNL1        0.0858
     16 N          -6.6097    0.2265   -0.5304 N.ar    1  UNL1       -0.2571
     17 N          -6.7182    1.0301   -1.6010 N.ar    1  UNL1       -0.0673
     18 N          -5.4877    1.3097   -2.0139 N.ar    1  UNL1       -0.1297
     19 C          -4.6051    0.6668   -1.1872 C.ar    1  UNL1        0.1130
     20 C          -3.2034    0.6314   -1.1871 C.ar    1  UNL1       -0.0247
     21 C          -0.3281   -0.5137   -1.3277 C.ar    1  UNL1       -0.0533
     22 C           1.0682   -0.5655   -1.2919 C.ar    1  UNL1       -0.0514
     23 C           1.7923   -0.2848   -0.1082 C.ar    1  UNL1        0.0081
     24 H           7.1279   -0.3663    0.4708 H       1  UNL1        0.0618
     25 H           6.1394   -0.9065   -1.7386 H       1  UNL1        0.0618
     26 H           3.7236   -0.8834   -2.0538 H       1  UNL1        0.0624
     27 H           5.6603    0.1994    2.3679 H       1  UNL1        0.0624
     28 H           3.3691    0.5413    3.2810 H       1  UNL1        0.0836
     29 H          -0.8699    0.3771    1.8928 H       1  UNL1        0.0645
     30 H          -2.7786   -1.4202    1.5109 H       1  UNL1        0.0624
     31 H          -5.2565   -1.3484    1.5171 H       1  UNL1        0.0639
     32 H          -7.4543   -0.0928   -0.0729 H       1  UNL1        0.1907
     33 H          -2.6606    1.1972   -1.9375 H       1  UNL1        0.0646
     34 H          -0.8397   -0.7493   -2.2592 H       1  UNL1        0.0624
     35 H           1.5811   -0.8334   -2.2112 H       1  UNL1        0.0624
@<TRIPOS>BOND
     1     1     2   ar
     2     2     3   ar
     3     3     4   ar
     4     4     5   ar
     5     5     6   ar
     6     5     7   ar
     7     7     8   ar
     8     8     9   ar
     9     9    10   ar
    10    10    11   ar
    11    11    12    1
    12    12    13   ar
    13    13    14   ar
    14    14    15   ar
    15    15    16   ar
    16    16    17   ar
    17    17    18   ar
    18    18    19   ar
    19    19    20   ar
    20    11    21   ar
    21    21    22   ar
    22    22    23   ar
    23     6     1   ar
    24    23     9   ar
    25    23     4   ar
    26    20    12   ar
    27    19    15   ar
    28     1    24    1
    29     2    25    1
    30     3    26    1
    31     6    27    1
    32     7    28    1
    33    10    29    1
    34    13    30    1
    35    14    31    1
    36    16    32    1
    37    20    33    1
    38    21    34    1
    39    22    35    1
