@<TRIPOS>MOLECULE
*****
 42 47 0 0 0
SMALL
GASTEIGER

@<TRIPOS>ATOM
      1 C           7.4911   -0.1330   -0.1141 C.ar    1  UNL1       -0.0611
      2 C           6.8918    0.5635   -1.1541 C.ar    1  UNL1       -0.0611
      3 C           5.4971    0.6294   -1.2402 C.ar    1  UNL1       -0.0534
      4 C           4.6535    0.0008   -0.2888 C.ar    1  UNL1       -0.0073
      5 C           5.2914   -0.6992    0.7562 C.ar    1  UNL1        0.0008
      6 C           6.6951   -0.7626    0.8382 C.ar    1  UNL1       -0.0526
      7 C           4.4866   -1.3235    1.7011 C.ar    1  UNL1        0.0360
      8 N           3.1373   -1.3097    1.6937 N.ar    1  UNL1       -0.2543
      9 C           2.5212   -0.6487    0.7058 C.ar    1  UNL1        0.0721
     10 C           1.1316   -0.6434    0.7103 C.ar    1  UNL1       -0.0280
     11 C           0.3679    0.0131   -0.2673 C.ar    1  UNL1       -0.0158
     12 C          -1.1043   -0.0025   -0.2217 C.ar    1  UNL1       -0.0158
     13 C          -1.8507   -0.4298   -1.3310 C.ar    1  UNL1       -0.0533
     14 C          -3.2532   -0.4526   -1.3143 C.ar    1  UNL1       -0.0514
     15 C          -3.9377   -0.0360   -0.1569 C.ar    1  UNL1        0.0090
     16 C          -3.1875    0.3867    0.9422 C.ar    1  UNL1        0.0492
     17 C          -1.7857    0.4126    0.9384 C.ar    1  UNL1       -0.0300
     18 N          -4.0794    0.7370    1.9301 N.ar    1  UNL1       -0.3390
     19 C          -5.3630    0.5528    1.5026 C.ar    1  UNL1        0.1391
     20 N          -6.4554    0.8083    2.2464 N.ar    1  UNL1       -0.2375
     21 C          -7.6089    0.5409    1.5924 C.ar    1  UNL1        0.0299
     22 C          -7.7121    0.0553    0.2949 C.ar    1  UNL1       -0.0429
     23 C          -6.5456   -0.1912   -0.4306 C.ar    1  UNL1       -0.0490
     24 C          -5.3171    0.0690    0.2011 C.ar    1  UNL1        0.0264
     25 C           1.0539    0.6835   -1.2809 C.ar    1  UNL1       -0.0533
     26 C           2.4511    0.6929   -1.3081 C.ar    1  UNL1       -0.0514
     27 C           3.2181    0.0299   -0.3197 C.ar    1  UNL1        0.0081
     28 H           8.5743   -0.1867   -0.0437 H       1  UNL1        0.0618
     29 H           7.5051    1.0586   -1.9029 H       1  UNL1        0.0618
     30 H           5.0780    1.1870   -2.0733 H       1  UNL1        0.0624
     31 H           7.1762   -1.3059    1.6491 H       1  UNL1        0.0624
     32 H           4.9189   -1.8786    2.5301 H       1  UNL1        0.0836
     33 H           0.6264   -1.1862    1.5082 H       1  UNL1        0.0645
     34 H          -1.3401   -0.7679   -2.2313 H       1  UNL1        0.0624
     35 H          -3.8019   -0.7928   -2.1875 H       1  UNL1        0.0624
     36 H          -1.2381    0.7571    1.8117 H       1  UNL1        0.0644
     37 H          -3.8418    1.0816    2.8470 H       1  UNL1        0.1673
     38 H          -8.5084    0.7381    2.1714 H       1  UNL1        0.0830
     39 H          -8.6859   -0.1291   -0.1457 H       1  UNL1        0.0633
     40 H          -6.5871   -0.5706   -1.4457 H       1  UNL1        0.0625
     41 H           0.5065    1.2179   -2.0550 H       1  UNL1        0.0624
     42 H           2.9305    1.2340   -2.1187 H       1  UNL1        0.0624
@<TRIPOS>BOND
     1     1     2   ar
     2     2     3   ar
     3     3     4   ar
     4     4     5   ar
     5     5     6   ar
     6     5     7   ar
     7     7     8   ar
     8     8     9   ar
     9     9    10   ar
    10    10    11   ar
    11    11    12    1
    12    12    13   ar
    13    13    14   ar
    14    14    15   ar
    15    15    16   ar
    16    16    17   ar
    17    16    18   ar
    18    18    19   ar
    19    19    20   ar
    20    20    21   ar
    21    21    22   ar
    22    22    23   ar
    23    23    24   ar
    24    11    25   ar
    25    25    26   ar
    26    26    27   ar
    27     6     1   ar
    28    27     9   ar
    29    27     4   ar
    30    17    12   ar
    31    24    19   ar
    32    24    15   ar
    33     1    28    1
    34     2    29    1
    35     3    30    1
    36     6    31    1
    37     7    32    1
    38    10    33    1
    39    13    34    1
    40    14    35    1
    41    17    36    1
    42    18    37    1
    43    21    38    1
    44    22    39    1
    45    23    40    1
    46    25    41    1
    47    26    42    1
