@<TRIPOS>MOLECULE
*****
 40 46 0 0 0
SMALL
GASTEIGER

@<TRIPOS>ATOM
      1 SI         -0.7527    1.4776    1.2682 Si      1  UNL1        0.0000
      2 C          -2.1710    0.4501    0.5120 C.2     1  UNL1        0.0000
      3 C          -1.6909   -0.5084   -0.3097 C.2     1  UNL1        0.0000
      4 C          -0.2350   -0.5216   -0.4147 C.ar    1  UNL1        0.0000
      5 C           0.5318    0.4348    0.3247 C.ar    1  UNL1        0.0000
      6 C           1.9766    0.5407    0.3183 C.ar    1  UNL1        0.0000
      7 C           2.6689    1.5107    1.0737 C.ar    1  UNL1        0.0000
      8 C           4.0648    1.5395    1.0068 C.ar    1  UNL1        0.0000
      9 O           4.8616    2.4174    1.6792 O.2     1  UNL1        0.0000
     10 C           6.1454    2.1197    1.3502 C.ar    1  UNL1        0.0000
     11 C           6.1867    1.0603    0.4736 C.ar    1  UNL1        0.0000
     12 C           4.8387    0.6767    0.2448 C.ar    1  UNL1        0.0000
     13 C           4.1926   -0.3029   -0.5213 C.ar    1  UNL1        0.0000
     14 C           2.7740   -0.3610   -0.4772 C.ar    1  UNL1        0.0000
     15 C           1.9883   -1.2995   -1.2006 C.ar    1  UNL1        0.0000
     16 C           2.4248   -2.2913   -2.0470 C.ar    1  UNL1        0.0000
     17 N           1.3091   -2.9513   -2.5192 N.ar    1  UNL1        0.0000
     18 C           0.1648   -2.3966   -1.9874 C.ar    1  UNL1        0.0000
     19 C           0.5612   -1.3708   -1.1669 C.ar    1  UNL1        0.0000
     20 C          -3.5571    0.6617    0.7760 C.ar    1  UNL1        0.0000
     21 S          -4.1303    1.9370    1.8638 S.2     1  UNL1        0.0000
     22 C          -5.7993    1.5624    1.6628 C.ar    1  UNL1        0.0000
     23 C          -5.8791    0.5268    0.8146 C.ar    1  UNL1        0.0000
     24 O          -7.0278   -0.0707    0.3963 O.2     1  UNL1        0.0000
     25 C          -6.4960   -1.0363   -0.4337 C.ar    1  UNL1        0.0000
     26 C          -5.0981   -1.0181   -0.5088 C.ar    1  UNL1        0.0000
     27 C          -4.6871    0.0377    0.3346 C.ar    1  UNL1        0.0000
     28 H          -0.6320    1.2954    2.7384 H       1  UNL1        0.0000
     29 H          -0.7569    2.8902    0.8057 H       1  UNL1        0.0000
     30 H          -2.2777   -1.2244   -0.8626 H       1  UNL1        0.0000
     31 H           2.1641    2.2336    1.7027 H       1  UNL1        0.0000
     32 H           6.9006    2.7397    1.8127 H       1  UNL1        0.0000
     33 H           7.0773    0.6182    0.0510 H       1  UNL1        0.0000
     34 H           4.7666   -0.9936   -1.1284 H       1  UNL1        0.0000
     35 H           3.4113   -2.5986   -2.3646 H       1  UNL1        0.0000
     36 H           1.3287   -3.7311   -3.1638 H       1  UNL1        0.0000
     37 H          -0.8078   -2.7896   -2.2487 H       1  UNL1        0.0000
     38 H          -6.6025    2.0934    2.1520 H       1  UNL1        0.0000
     39 H          -7.2385   -1.6667   -0.9053 H       1  UNL1        0.0000
     40 H          -4.4981   -1.6911   -1.1020 H       1  UNL1        0.0000
@<TRIPOS>BOND
     1     1     2    1
     2     2     3    2
     3     3     4    1
     4     4     5   ar
     5     5     6   ar
     6     6     7   ar
     7     7     8   ar
     8     8     9   ar
     9     9    10   ar
    10    10    11   ar
    11    11    12   ar
    12    12    13   ar
    13    13    14   ar
    14    14    15   ar
    15    15    16   ar
    16    16    17   ar
    17    17    18   ar
    18    18    19   ar
    19     2    20    1
    20    20    21   ar
    21    21    22   ar
    22    22    23   ar
    23    23    24   ar
    24    24    25   ar
    25    25    26   ar
    26    26    27   ar
    27     5     1    1
    28    14     6   ar
    29    19    15   ar
    30    27    20   ar
    31    19     4   ar
    32    27    23   ar
    33    12     8   ar
    34     1    28    1
    35     1    29    1
    36     3    30    1
    37     7    31    1
    38    10    32    1
    39    11    33    1
    40    13    34    1
    41    16    35    1
    42    17    36    1
    43    18    37    1
    44    22    38    1
    45    25    39    1
    46    26    40    1
