@<TRIPOS>MOLECULE
*****
 46 53 0 0 0
SMALL
GASTEIGER

@<TRIPOS>ATOM
      1 SI         -1.6641    4.2213    1.7121 Si      1  UNL1        0.0000
      2 C          -3.0854    3.1416    1.2081 C.2     1  UNL1        0.0000
      3 C          -2.6789    1.9227    0.7880 C.ar    1  UNL1        0.0000
      4 C          -3.5940    0.8478    0.3207 C.ar    1  UNL1        0.0000
      5 C          -5.0116    1.1154    0.1486 C.ar    1  UNL1        0.0000
      6 C          -5.9496    0.2112   -0.3883 C.ar    1  UNL1        0.0000
      7 C          -5.3141   -0.9506   -0.7807 C.ar    1  UNL1        0.0000
      8 C          -5.9346   -1.9827   -1.4349 C.ar    1  UNL1        0.0000
      9 N          -4.9589   -2.9029   -1.7294 N.ar    1  UNL1        0.0000
     10 C          -3.7340   -2.4568   -1.2752 C.ar    1  UNL1        0.0000
     11 C          -3.9238   -1.2599   -0.6187 C.ar    1  UNL1        0.0000
     12 C          -2.9761   -0.4118    0.0022 C.ar    1  UNL1        0.0000
     13 C          -1.5379   -0.6904    0.2409 C.ar    1  UNL1        0.0000
     14 C          -1.0399   -1.9954    0.2847 C.ar    1  UNL1        0.0000
     15 C           0.3238   -2.2678    0.3663 C.ar    1  UNL1        0.0000
     16 C           1.2573   -1.2161    0.3948 C.ar    1  UNL1        0.0000
     17 C           2.6918   -1.2930    0.4087 C.ar    1  UNL1        0.0000
     18 C           3.3038   -0.0635    0.4349 C.ar    1  UNL1        0.0000
     19 S           2.1452    1.1787    0.4531 S.2     1  UNL1        0.0000
     20 C           0.7824    0.1037    0.4573 C.ar    1  UNL1        0.0000
     21 C          -0.6232    0.3790    0.4842 C.ar    1  UNL1        0.0000
     22 C          -1.2010    1.7152    0.8252 C.ar    1  UNL1        0.0000
     23 C          -0.5428    2.7931    1.3082 C.2     1  UNL1        0.0000
     24 C           4.7134    0.2100    0.4363 C.ar    1  UNL1        0.0000
     25 S           5.4687    1.3141    1.5337 S.2     1  UNL1        0.0000
     26 C           7.0435    1.0284    0.9012 C.ar    1  UNL1        0.0000
     27 C           6.9316    0.1270   -0.0985 C.ar    1  UNL1        0.0000
     28 C           7.8749   -0.4685   -0.9691 C.ar    1  UNL1        0.0000
     29 C           7.2808   -1.3576   -1.8713 C.ar    1  UNL1        0.0000
     30 S           5.5375   -1.5477   -1.7461 S.2     1  UNL1        0.0000
     31 C           5.6536   -0.3530   -0.3895 C.ar    1  UNL1        0.0000
     32 H          -1.6811    4.5461    3.1590 H       1  UNL1        0.0000
     33 H          -1.4758    5.3775    0.8029 H       1  UNL1        0.0000
     34 H          -4.0866    3.5290    1.2830 H       1  UNL1        0.0000
     35 H          -5.4059    2.0908    0.4265 H       1  UNL1        0.0000
     36 H          -6.9960    0.4428   -0.5213 H       1  UNL1        0.0000
     37 H          -6.9588   -2.1392   -1.7450 H       1  UNL1        0.0000
     38 H          -5.1066   -3.7613   -2.2442 H       1  UNL1        0.0000
     39 H          -2.8556   -3.0423   -1.5015 H       1  UNL1        0.0000
     40 H          -1.7107   -2.8485    0.2816 H       1  UNL1        0.0000
     41 H           0.6638   -3.3006    0.3763 H       1  UNL1        0.0000
     42 H           3.2370   -2.2293    0.3960 H       1  UNL1        0.0000
     43 H           0.5001    2.9196    1.5254 H       1  UNL1        0.0000
     44 H           7.9142    1.5321    1.2966 H       1  UNL1        0.0000
     45 H           8.9405   -0.2737   -0.9621 H       1  UNL1        0.0000
     46 H           7.7832   -1.9342   -2.6363 H       1  UNL1        0.0000
@<TRIPOS>BOND
     1     1     2    1
     2     2     3    2
     3     3     4   ar
     4     4     5   ar
     5     5     6   ar
     6     6     7   ar
     7     7     8   ar
     8     8     9   ar
     9     9    10   ar
    10    10    11   ar
    11    11    12   ar
    12    12    13   ar
    13    13    14   ar
    14    14    15   ar
    15    15    16   ar
    16    16    17   ar
    17    17    18   ar
    18    18    19   ar
    19    19    20   ar
    20    20    21   ar
    21    21    22   ar
    22    22    23    2
    23    18    24    1
    24    24    25   ar
    25    25    26   ar
    26    26    27   ar
    27    27    28   ar
    28    28    29   ar
    29    29    30   ar
    30    30    31   ar
    31    23     1    1
    32    31    24   ar
    33    22     3   ar
    34    31    27   ar
    35    12     4   ar
    36    21    13   ar
    37    11     7   ar
    38    20    16   ar
    39     1    32    1
    40     1    33    1
    41     2    34    1
    42     5    35    1
    43     6    36    1
    44     8    37    1
    45     9    38    1
    46    10    39    1
    47    14    40    1
    48    15    41    1
    49    17    42    1
    50    23    43    1
    51    26    44    1
    52    28    45    1
    53    29    46    1
