@<TRIPOS>MOLECULE
*****
 42 47 0 0 0
SMALL
GASTEIGER

@<TRIPOS>ATOM
      1 C          -7.6076    0.0253    0.2316 C.ar    1  UNL1       -0.0611
      2 C          -7.0160   -1.2083    0.4642 C.ar    1  UNL1       -0.0611
      3 C          -5.6240   -1.3376    0.4141 C.ar    1  UNL1       -0.0534
      4 C          -4.7755   -0.2372    0.1296 C.ar    1  UNL1       -0.0073
      5 C          -5.4056    1.0031   -0.1022 C.ar    1  UNL1        0.0008
      6 C          -6.8066    1.1278   -0.0507 C.ar    1  UNL1       -0.0526
      7 C          -4.5957    2.0965   -0.3830 C.ar    1  UNL1        0.0360
      8 N          -3.2486    2.0602   -0.4503 N.ar    1  UNL1       -0.2543
      9 C          -2.6398    0.8881   -0.2318 C.ar    1  UNL1        0.0721
     10 C          -1.2521    0.8657   -0.3041 C.ar    1  UNL1       -0.0280
     11 C          -0.4958   -0.2982   -0.0962 C.ar    1  UNL1       -0.0158
     12 C           0.9740   -0.2768   -0.1799 C.ar    1  UNL1       -0.0167
     13 C           1.6591   -1.1635   -1.0140 C.ar    1  UNL1       -0.0534
     14 C           3.0573   -1.1508   -1.0993 C.ar    1  UNL1       -0.0524
     15 C           3.8218   -0.2334   -0.3361 C.ar    1  UNL1       -0.0031
     16 C           3.1309    0.6479    0.4934 C.ar    1  UNL1        0.0211
     17 C           1.7220    0.6385    0.5799 C.ar    1  UNL1       -0.0397
     18 S           4.2027    1.6830    1.3431 S.2     1  UNL1       -0.0882
     19 C           5.5963    0.9860    0.6268 C.ar    1  UNL1        0.0205
     20 C           6.9375    1.3519    0.8604 C.ar    1  UNL1       -0.0474
     21 C           7.9540    0.6731    0.1862 C.ar    1  UNL1       -0.0607
     22 C           7.6486   -0.3474   -0.7014 C.ar    1  UNL1       -0.0611
     23 C           6.3166   -0.7063   -0.9291 C.ar    1  UNL1       -0.0529
     24 C           5.2580   -0.0366   -0.2602 C.ar    1  UNL1       -0.0031
     25 C          -1.1877   -1.4748    0.1948 C.ar    1  UNL1       -0.0533
     26 C          -2.5830   -1.4785    0.2738 C.ar    1  UNL1       -0.0514
     27 C          -3.3424   -0.3023    0.0632 C.ar    1  UNL1        0.0081
     28 H          -8.6887    0.1300    0.2696 H       1  UNL1        0.0618
     29 H          -7.6334   -2.0754    0.6857 H       1  UNL1        0.0618
     30 H          -5.2111   -2.3245    0.6038 H       1  UNL1        0.0624
     31 H          -7.2816    2.0901   -0.2313 H       1  UNL1        0.0624
     32 H          -5.0218    3.0791   -0.5708 H       1  UNL1        0.0836
     33 H          -0.7439    1.7989   -0.5441 H       1  UNL1        0.0645
     34 H           1.1081   -1.8754   -1.6263 H       1  UNL1        0.0624
     35 H           3.5554   -1.8529   -1.7631 H       1  UNL1        0.0624
     36 H           1.2218    1.3376    1.2468 H       1  UNL1        0.0635
     37 H           7.1787    2.1516    1.5553 H       1  UNL1        0.0629
     38 H           8.9914    0.9490    0.3600 H       1  UNL1        0.0618
     39 H           8.4455   -0.8714   -1.2232 H       1  UNL1        0.0618
     40 H           6.0943   -1.5083   -1.6284 H       1  UNL1        0.0624
     41 H          -0.6463   -2.4012    0.3769 H       1  UNL1        0.0624
     42 H          -3.0669   -2.4224    0.5076 H       1  UNL1        0.0624
@<TRIPOS>BOND
     1     1     2   ar
     2     2     3   ar
     3     3     4   ar
     4     4     5   ar
     5     5     6   ar
     6     5     7   ar
     7     7     8   ar
     8     8     9   ar
     9     9    10   ar
    10    10    11   ar
    11    11    12    1
    12    12    13   ar
    13    13    14   ar
    14    14    15   ar
    15    15    16   ar
    16    16    17   ar
    17    16    18   ar
    18    18    19   ar
    19    19    20   ar
    20    20    21   ar
    21    21    22   ar
    22    22    23   ar
    23    23    24   ar
    24    11    25   ar
    25    25    26   ar
    26    26    27   ar
    27     6     1   ar
    28    27     9   ar
    29    27     4   ar
    30    17    12   ar
    31    24    19   ar
    32    24    15   ar
    33     1    28    1
    34     2    29    1
    35     3    30    1
    36     6    31    1
    37     7    32    1
    38    10    33    1
    39    13    34    1
    40    14    35    1
    41    17    36    1
    42    20    37    1
    43    21    38    1
    44    22    39    1
    45    23    40    1
    46    25    41    1
    47    26    42    1
