@<TRIPOS>MOLECULE
*****
 37 41 0 0 0
SMALL
GASTEIGER

@<TRIPOS>ATOM
      1 C          -6.4463   -0.4282   -0.3572 C.ar    1  UNL1       -0.0611
      2 C          -5.8437    0.1748   -1.4523 C.ar    1  UNL1       -0.0611
      3 C          -4.4510    0.2934   -1.5076 C.ar    1  UNL1       -0.0534
      4 C          -3.6127   -0.1870   -0.4692 C.ar    1  UNL1       -0.0073
      5 C          -4.2538   -0.7947    0.6302 C.ar    1  UNL1        0.0008
      6 C          -5.6555   -0.9116    0.6810 C.ar    1  UNL1       -0.0526
      7 C          -3.4541   -1.2736    1.6605 C.ar    1  UNL1        0.0360
      8 N          -2.1070   -1.2002    1.6876 N.ar    1  UNL1       -0.2543
      9 C          -1.4880   -0.6248    0.6495 C.ar    1  UNL1        0.0721
     10 C          -0.1004   -0.5559    0.6916 C.ar    1  UNL1       -0.0280
     11 C           0.6671    0.0201   -0.3328 C.ar    1  UNL1       -0.0158
     12 C           2.1355    0.0726   -0.2477 C.ar    1  UNL1       -0.0157
     13 C           2.9397   -0.4007   -1.2904 C.ar    1  UNL1       -0.0519
     14 C           4.3333   -0.3448   -1.1970 C.ar    1  UNL1       -0.0337
     15 C           4.9607    0.1785   -0.0764 C.ar    1  UNL1        0.0892
     16 N           6.3072    0.2164   -0.0242 N.ar    1  UNL1       -0.2519
     17 C           6.8485    0.7386    1.0971 C.ar    1  UNL1        0.0464
     18 C           6.0748    1.2111    2.1365 C.ar    1  UNL1        0.0464
     19 N           4.7253    1.1822    2.1010 N.ar    1  UNL1       -0.2519
     20 C           4.1648    0.6626    0.9901 C.ar    1  UNL1        0.0897
     21 C           2.7791    0.5998    0.8843 C.ar    1  UNL1       -0.0265
     22 C          -0.0143    0.5414   -1.4337 C.ar    1  UNL1       -0.0533
     23 C          -1.4093    0.4855   -1.4995 C.ar    1  UNL1       -0.0514
     24 C          -2.1794   -0.0969   -0.4642 C.ar    1  UNL1        0.0081
     25 H          -7.5280   -0.5222   -0.3104 H       1  UNL1        0.0618
     26 H          -6.4531    0.5557   -2.2682 H       1  UNL1        0.0618
     27 H          -4.0293    0.7736   -2.3864 H       1  UNL1        0.0624
     28 H          -6.1392   -1.3824    1.5346 H       1  UNL1        0.0624
     29 H          -3.8889   -1.7520    2.5347 H       1  UNL1        0.0836
     30 H           0.3984   -0.9823    1.5613 H       1  UNL1        0.0645
     31 H           2.4905   -0.8320   -2.1831 H       1  UNL1        0.0624
     32 H           4.9430   -0.7210   -2.0149 H       1  UNL1        0.0640
     33 H           7.9312    0.7662    1.1355 H       1  UNL1        0.0845
     34 H           6.5189    1.6287    3.0326 H       1  UNL1        0.0845
     35 H           2.1889    0.9869    1.7134 H       1  UNL1        0.0645
     36 H           0.5323    1.0109   -2.2496 H       1  UNL1        0.0624
     37 H          -1.8850    0.9112   -2.3784 H       1  UNL1        0.0624
@<TRIPOS>BOND
     1     1     2   ar
     2     2     3   ar
     3     3     4   ar
     4     4     5   ar
     5     5     6   ar
     6     5     7   ar
     7     7     8   ar
     8     8     9   ar
     9     9    10   ar
    10    10    11   ar
    11    11    12    1
    12    12    13   ar
    13    13    14   ar
    14    14    15   ar
    15    15    16   ar
    16    16    17   ar
    17    17    18   ar
    18    18    19   ar
    19    19    20   ar
    20    20    21   ar
    21    11    22   ar
    22    22    23   ar
    23    23    24   ar
    24     6     1   ar
    25    24     9   ar
    26    24     4   ar
    27    21    12   ar
    28    20    15   ar
    29     1    25    1
    30     2    26    1
    31     3    27    1
    32     6    28    1
    33     7    29    1
    34    10    30    1
    35    13    31    1
    36    14    32    1
    37    17    33    1
    38    18    34    1
    39    21    35    1
    40    22    36    1
    41    23    37    1
