@<TRIPOS>MOLECULE
*****
 37 41 0 0 0
SMALL
GASTEIGER

@<TRIPOS>ATOM
      1 C          -6.5315    0.3498    0.2488 C.ar    1  UNL1       -0.0611
      2 C          -5.8282    1.2325    1.0564 C.ar    1  UNL1       -0.0611
      3 C          -4.4307    1.1847    1.0945 C.ar    1  UNL1       -0.0534
      4 C          -3.6883    0.2520    0.3259 C.ar    1  UNL1       -0.0073
      5 C          -4.4304   -0.6318   -0.4848 C.ar    1  UNL1        0.0008
      6 C          -5.8365   -0.5795   -0.5196 C.ar    1  UNL1       -0.0526
      7 C          -3.7255   -1.5549   -1.2473 C.ar    1  UNL1        0.0360
      8 N          -2.3810   -1.6692   -1.2695 N.ar    1  UNL1       -0.2543
      9 C          -1.6673   -0.8351   -0.5042 C.ar    1  UNL1        0.0721
     10 C          -0.2837   -0.9651   -0.5385 C.ar    1  UNL1       -0.0280
     11 C           0.5798   -0.1554    0.2167 C.ar    1  UNL1       -0.0143
     12 C           2.0387   -0.3282    0.1549 C.ar    1  UNL1        0.0023
     13 C           2.6423   -1.5763    0.2814 C.ar    1  UNL1        0.0361
     14 N           3.9777   -1.7946    0.2352 N.ar    1  UNL1       -0.2528
     15 C           4.7714   -0.7216    0.0541 C.ar    1  UNL1        0.0892
     16 C           6.1468   -0.8826   -0.0022 C.ar    1  UNL1       -0.0328
     17 C           6.9889    0.2110   -0.1886 C.ar    1  UNL1       -0.0415
     18 C           6.4108    1.4585   -0.3146 C.ar    1  UNL1        0.0284
     19 N           5.0790    1.6702   -0.2662 N.ar    1  UNL1       -0.2534
     20 C           4.2837    0.5941   -0.0861 C.ar    1  UNL1        0.0897
     21 C           2.9068    0.7569   -0.0316 C.ar    1  UNL1       -0.0251
     22 C          -0.0014    0.8198    1.0296 C.ar    1  UNL1       -0.0533
     23 C          -1.3901    0.9709    1.0813 C.ar    1  UNL1       -0.0514
     24 C          -2.2559    0.1506    0.3192 C.ar    1  UNL1        0.0081
     25 H          -7.6173    0.3839    0.2164 H       1  UNL1        0.0618
     26 H          -6.3624    1.9621    1.6601 H       1  UNL1        0.0618
     27 H          -3.9282    1.8975    1.7426 H       1  UNL1        0.0624
     28 H          -6.3987   -1.2663   -1.1491 H       1  UNL1        0.0624
     29 H          -4.2408   -2.2625   -1.8924 H       1  UNL1        0.0836
     30 H           0.1299   -1.7272   -1.1983 H       1  UNL1        0.0645
     31 H           2.0498   -2.4750    0.4403 H       1  UNL1        0.0836
     32 H           6.5669   -1.8795    0.1006 H       1  UNL1        0.0640
     33 H           8.0648    0.0870   -0.2337 H       1  UNL1        0.0633
     34 H           7.0178    2.3474   -0.4621 H       1  UNL1        0.0830
     35 H           2.5081    1.7618   -0.1520 H       1  UNL1        0.0646
     36 H           0.6190    1.4695    1.6450 H       1  UNL1        0.0624
     37 H          -1.7840    1.7447    1.7342 H       1  UNL1        0.0624
@<TRIPOS>BOND
     1     1     2   ar
     2     2     3   ar
     3     3     4   ar
     4     4     5   ar
     5     5     6   ar
     6     5     7   ar
     7     7     8   ar
     8     8     9   ar
     9     9    10   ar
    10    10    11   ar
    11    11    12    1
    12    12    13   ar
    13    13    14   ar
    14    14    15   ar
    15    15    16   ar
    16    16    17   ar
    17    17    18   ar
    18    18    19   ar
    19    19    20   ar
    20    20    21   ar
    21    11    22   ar
    22    22    23   ar
    23    23    24   ar
    24     6     1   ar
    25    24     9   ar
    26    24     4   ar
    27    21    12   ar
    28    20    15   ar
    29     1    25    1
    30     2    26    1
    31     3    27    1
    32     6    28    1
    33     7    29    1
    34    10    30    1
    35    13    31    1
    36    16    32    1
    37    17    33    1
    38    18    34    1
    39    21    35    1
    40    22    36    1
    41    23    37    1
