@<TRIPOS>MOLECULE
*****
 35 39 0 0 0
SMALL
GASTEIGER

@<TRIPOS>ATOM
      1 C           6.1970   -0.6983    0.4065 C.ar    1  UNL1       -0.0611
      2 C           5.3794   -1.6539    0.9936 C.ar    1  UNL1       -0.0611
      3 C           3.9884   -1.5273    0.9172 C.ar    1  UNL1       -0.0534
      4 C           3.3677   -0.4402    0.2507 C.ar    1  UNL1       -0.0073
      5 C           4.2237    0.5145   -0.3359 C.ar    1  UNL1        0.0008
      6 C           5.6227    0.3825   -0.2562 C.ar    1  UNL1       -0.0526
      7 C           3.6373    1.5884   -0.9943 C.ar    1  UNL1        0.0360
      8 N           2.3071    1.7858   -1.1142 N.ar    1  UNL1       -0.2543
      9 C           1.4865    0.8852   -0.5609 C.ar    1  UNL1        0.0722
     10 C           0.1183    1.1067   -0.6955 C.ar    1  UNL1       -0.0265
     11 C          -0.8635    0.2487   -0.1681 C.ar    1  UNL1        0.0039
     12 C          -2.3191    0.4922   -0.3161 C.ar    1  UNL1        0.0916
     13 C          -2.8805    1.5751   -0.9802 C.ar    1  UNL1        0.0561
     14 N          -4.2160    1.7719   -1.0997 N.ar    1  UNL1       -0.2310
     15 C          -5.0132    0.8586   -0.5384 C.ar    1  UNL1        0.1977
     16 N          -6.3394    1.0256   -0.6396 N.ar    1  UNL1       -0.2316
     17 C          -7.1180    0.0881   -0.0634 C.ar    1  UNL1        0.0482
     18 C          -6.5868   -0.9950    0.6006 C.ar    1  UNL1        0.0482
     19 N          -5.2563   -1.1827    0.7146 N.ar    1  UNL1       -0.2316
     20 C          -4.4621   -0.2625    0.1491 C.ar    1  UNL1        0.1983
     21 N          -3.1371   -0.4300    0.2506 N.ar    1  UNL1       -0.2232
     22 C          -0.3914   -0.8764    0.5218 C.ar    1  UNL1       -0.0518
     23 C           0.9774   -1.1239    0.6724 C.ar    1  UNL1       -0.0514
     24 C           1.9490   -0.2510    0.1359 C.ar    1  UNL1        0.0081
     25 H           7.2781   -0.7934    0.4638 H       1  UNL1        0.0618
     26 H           5.8187   -2.5018    1.5134 H       1  UNL1        0.0618
     27 H           3.3929   -2.3018    1.3930 H       1  UNL1        0.0624
     28 H           6.2740    1.1253   -0.7126 H       1  UNL1        0.0624
     29 H           4.2438    2.3575   -1.4668 H       1  UNL1        0.0836
     30 H          -0.1618    2.0024   -1.2448 H       1  UNL1        0.0645
     31 H          -2.2833    2.3459   -1.4538 H       1  UNL1        0.0852
     32 H          -8.1885    0.2355   -0.1529 H       1  UNL1        0.0846
     33 H          -7.2165   -1.7470    1.0628 H       1  UNL1        0.0846
     34 H          -1.0931   -1.5877    0.9589 H       1  UNL1        0.0624
     35 H           1.2648   -2.0169    1.2201 H       1  UNL1        0.0624
@<TRIPOS>BOND
     1     1     2   ar
     2     2     3   ar
     3     3     4   ar
     4     4     5   ar
     5     5     6   ar
     6     5     7   ar
     7     7     8   ar
     8     8     9   ar
     9     9    10   ar
    10    10    11   ar
    11    11    12    1
    12    12    13   ar
    13    13    14   ar
    14    14    15   ar
    15    15    16   ar
    16    16    17   ar
    17    17    18   ar
    18    18    19   ar
    19    19    20   ar
    20    20    21   ar
    21    11    22   ar
    22    22    23   ar
    23    23    24   ar
    24     6     1   ar
    25    24     9   ar
    26    24     4   ar
    27    21    12   ar
    28    20    15   ar
    29     1    25    1
    30     2    26    1
    31     3    27    1
    32     6    28    1
    33     7    29    1
    34    10    30    1
    35    13    31    1
    36    17    32    1
    37    18    33    1
    38    22    34    1
    39    23    35    1
