@<TRIPOS>MOLECULE
*****
 29 32 0 0 0
SMALL
GASTEIGER

@<TRIPOS>ATOM
      1 C           4.8109   -0.3634   -0.1717 C.ar    1  UNL1       -0.0611
      2 C           4.1317   -1.4851    0.2828 C.ar    1  UNL1       -0.0611
      3 C           2.7348   -1.4751    0.3577 C.ar    1  UNL1       -0.0534
      4 C           1.9691   -0.3424   -0.0196 C.ar    1  UNL1       -0.0073
      5 C           2.6871    0.7820   -0.4773 C.ar    1  UNL1        0.0008
      6 C           4.0925    0.7667   -0.5507 C.ar    1  UNL1       -0.0526
      7 C           1.9592    1.9043   -0.8528 C.ar    1  UNL1        0.0360
      8 N           0.6135    1.9986   -0.8125 N.ar    1  UNL1       -0.2543
      9 C          -0.0776    0.9377   -0.3801 C.ar    1  UNL1        0.0721
     10 C          -1.4620    1.0529   -0.3452 C.ar    1  UNL1       -0.0279
     11 C          -2.2934    0.0116    0.0863 C.ar    1  UNL1       -0.0113
     12 C          -3.7376    0.1569    0.1147 C.ar    1  UNL1        0.0408
     13 C          -4.7265   -0.4922    0.8894 C.ar    1  UNL1        0.0777
     14 N          -5.9611   -0.0766    0.5961 N.ar    1  UNL1       -0.0862
     15 O          -5.7962    0.8713   -0.4001 O.2     1  UNL1       -0.3623
     16 C          -4.4752    1.0027   -0.6811 C.ar    1  UNL1        0.1319
     17 C          -1.6980   -1.1786    0.4989 C.ar    1  UNL1       -0.0532
     18 C          -0.3072   -1.3162    0.4717 C.ar    1  UNL1       -0.0514
     19 C           0.5360   -0.2667    0.0331 C.ar    1  UNL1        0.0081
     20 H           5.8961   -0.3673   -0.2312 H       1  UNL1        0.0618
     21 H           4.6844   -2.3726    0.5810 H       1  UNL1        0.0618
     22 H           2.2523   -2.3787    0.7201 H       1  UNL1        0.0624
     23 H           4.6362    1.6402   -0.9053 H       1  UNL1        0.0624
     24 H           2.4556    2.8021   -1.2136 H       1  UNL1        0.0836
     25 H          -1.8882    2.0037   -0.6591 H       1  UNL1        0.0645
     26 H          -4.6058   -1.2440    1.6564 H       1  UNL1        0.0870
     27 H          -4.2412    1.7160   -1.4577 H       1  UNL1        0.1064
     28 H          -2.2969   -2.0221    0.8348 H       1  UNL1        0.0624
     29 H           0.1076   -2.2656    0.7991 H       1  UNL1        0.0624
@<TRIPOS>BOND
     1     1     2   ar
     2     2     3   ar
     3     3     4   ar
     4     4     5   ar
     5     5     6   ar
     6     5     7   ar
     7     7     8   ar
     8     8     9   ar
     9     9    10   ar
    10    10    11   ar
    11    11    12    1
    12    12    13   ar
    13    13    14   ar
    14    14    15   ar
    15    15    16   ar
    16    11    17   ar
    17    17    18   ar
    18    18    19   ar
    19     6     1   ar
    20    19     9   ar
    21    19     4   ar
    22    16    12   ar
    23     1    20    1
    24     2    21    1
    25     3    22    1
    26     6    23    1
    27     7    24    1
    28    10    25    1
    29    13    26    1
    30    16    27    1
    31    17    28    1
    32    18    29    1
