@<TRIPOS>MOLECULE
*****
 35 39 0 0 0
SMALL
GASTEIGER

@<TRIPOS>ATOM
      1 C          -5.9719   -0.4116   -2.1842 C.ar    1  UNL1       -0.0611
      2 C          -5.5126    0.8563   -1.8562 C.ar    1  UNL1       -0.0611
      3 C          -4.2053    1.0279   -1.3888 C.ar    1  UNL1       -0.0534
      4 C          -3.3119   -0.0628   -1.2334 C.ar    1  UNL1       -0.0073
      5 C          -3.8072   -1.3384   -1.5747 C.ar    1  UNL1        0.0008
      6 C          -5.1234   -1.5058   -2.0445 C.ar    1  UNL1       -0.0526
      7 C          -2.9514   -2.4233   -1.4312 C.ar    1  UNL1        0.0360
      8 N          -1.6790   -2.3470   -0.9887 N.ar    1  UNL1       -0.2543
      9 C          -1.1976   -1.1420   -0.6617 C.ar    1  UNL1        0.0723
     10 C           0.1134   -1.0800   -0.2081 C.ar    1  UNL1       -0.0235
     11 C           0.7281    0.1229    0.1639 C.ar    1  UNL1        0.0390
     12 C           2.1113    0.1144    0.6325 C.ar    1  UNL1        0.2285
     13 N           2.9340   -0.9106    0.7728 N.ar    1  UNL1       -0.2090
     14 C           4.0898   -0.3416    1.2425 C.ar    1  UNL1        0.1099
     15 C           5.3241   -0.9080    1.5848 C.ar    1  UNL1       -0.0326
     16 C           6.3385   -0.0540    2.0452 C.ar    1  UNL1       -0.0595
     17 C           6.1266    1.3263    2.1605 C.ar    1  UNL1       -0.0582
     18 C           4.8977    1.9065    1.8219 C.ar    1  UNL1       -0.0171
     19 C           3.9215    1.0267    1.3710 C.ar    1  UNL1        0.1557
     20 O           2.6506    1.3295    0.9805 O.2     1  UNL1       -0.4353
     21 C          -0.0169    1.2977    0.0703 C.ar    1  UNL1       -0.0488
     22 C          -1.3381    1.2602   -0.3835 C.ar    1  UNL1       -0.0513
     23 C          -1.9604    0.0448   -0.7598 C.ar    1  UNL1        0.0081
     24 H          -6.9868   -0.5493   -2.5476 H       1  UNL1        0.0618
     25 H          -6.1680    1.7172   -1.9620 H       1  UNL1        0.0618
     26 H          -3.8955    2.0407   -1.1462 H       1  UNL1        0.0624
     27 H          -5.4944   -2.4952   -2.3047 H       1  UNL1        0.0624
     28 H          -3.2743   -3.4319   -1.6778 H       1  UNL1        0.0836
     29 H           0.6775   -2.0106   -0.1428 H       1  UNL1        0.0646
     30 H           5.4838   -1.9765    1.4941 H       1  UNL1        0.0640
     31 H           7.3053   -0.4737    2.3166 H       1  UNL1        0.0618
     32 H           6.9339    1.9617    2.5208 H       1  UNL1        0.0619
     33 H           4.7152    2.9702    1.9042 H       1  UNL1        0.0655
     34 H           0.4176    2.2560    0.3479 H       1  UNL1        0.0625
     35 H          -1.8745    2.2033   -0.4377 H       1  UNL1        0.0624
@<TRIPOS>BOND
     1     1     2   ar
     2     2     3   ar
     3     3     4   ar
     4     4     5   ar
     5     5     6   ar
     6     5     7   ar
     7     7     8   ar
     8     8     9   ar
     9     9    10   ar
    10    10    11   ar
    11    11    12    1
    12    12    13   ar
    13    13    14   ar
    14    14    15   ar
    15    15    16   ar
    16    16    17   ar
    17    17    18   ar
    18    18    19   ar
    19    19    20   ar
    20    11    21   ar
    21    21    22   ar
    22    22    23   ar
    23     6     1   ar
    24    23     9   ar
    25    23     4   ar
    26    20    12   ar
    27    19    14   ar
    28     1    24    1
    29     2    25    1
    30     3    26    1
    31     6    27    1
    32     7    28    1
    33    10    29    1
    34    15    30    1
    35    16    31    1
    36    17    32    1
    37    18    33    1
    38    21    34    1
    39    22    35    1
