@<TRIPOS>MOLECULE
*****
 41 46 0 0 0
SMALL
GASTEIGER

@<TRIPOS>ATOM
      1 C          -7.1760   -1.3840    0.8463 C.ar    1  UNL1       -0.0599
      2 C          -7.7520   -0.2145    0.3626 C.ar    1  UNL1       -0.0606
      3 C          -6.9376    0.8168   -0.1054 C.ar    1  UNL1       -0.0462
      4 C          -5.5403    0.6852   -0.1000 C.ar    1  UNL1        0.0339
      5 C          -4.9537   -0.5034    0.3666 C.ar    1  UNL1        0.0453
      6 C          -5.7868   -1.5232    0.8550 C.ar    1  UNL1       -0.0395
      7 N          -3.5597   -0.6740    0.4402 N.pl3   1  UNL1       -0.3127
      8 C          -2.5812    0.2086   -0.0527 C.ar    1  UNL1        0.0459
      9 C          -1.2268   -0.1570    0.0514 C.ar    1  UNL1       -0.0303
     10 C          -0.1803    0.6853   -0.3723 C.ar    1  UNL1        0.0022
     11 C           1.2294    0.2541   -0.2484 C.ar    1  UNL1        0.0730
     12 C           2.2660    1.1537    0.0085 C.ar    1  UNL1       -0.0117
     13 C           3.5481    0.6095    0.1012 C.ar    1  UNL1        0.0510
     14 N           4.7601    1.2117    0.3436 N.ar    1  UNL1       -0.3540
     15 C           5.7735    0.2828    0.3453 C.ar    1  UNL1        0.0504
     16 C           7.1440    0.4369    0.5432 C.ar    1  UNL1       -0.0196
     17 C           7.8803   -0.7362    0.4769 C.ar    1  UNL1        0.0295
     18 N           7.3645   -1.9626    0.2421 N.ar    1  UNL1       -0.2625
     19 C           6.0274   -2.0864    0.0527 C.ar    1  UNL1        0.0373
     20 C           5.1934   -0.9619    0.0994 C.ar    1  UNL1        0.0269
     21 C           3.7869   -0.7537   -0.0521 C.ar    1  UNL1        0.0270
     22 C           2.6953   -1.5901   -0.3013 C.ar    1  UNL1        0.0380
     23 N           1.4407   -1.0809   -0.3901 N.ar    1  UNL1       -0.2542
     24 C          -0.5382    1.9295   -0.9128 C.ar    1  UNL1       -0.0514
     25 C          -1.8785    2.3200   -1.0032 C.ar    1  UNL1       -0.0456
     26 C          -2.9034    1.4722   -0.5660 C.ar    1  UNL1        0.0339
     27 S          -4.5808    2.0636   -0.7060 S.3     1  UNL1       -0.0857
     28 H          -7.8051   -2.1866    1.2223 H       1  UNL1        0.0618
     29 H          -8.8328   -0.0998    0.3548 H       1  UNL1        0.0618
     30 H          -7.4011    1.7297   -0.4725 H       1  UNL1        0.0629
     31 H          -5.3553   -2.4393    1.2502 H       1  UNL1        0.0636
     32 H          -3.2470   -1.6276    0.5722 H       1  UNL1        0.1522
     33 H          -0.9723   -1.1265    0.4782 H       1  UNL1        0.0643
     34 H           2.0903    2.2129    0.1477 H       1  UNL1        0.0660
     35 H           4.8894    2.2015    0.4981 H       1  UNL1        0.1659
     36 H           7.6088    1.3950    0.7351 H       1  UNL1        0.0653
     37 H           8.9583   -0.7171    0.6186 H       1  UNL1        0.0830
     38 H           5.6607   -3.0896   -0.1322 H       1  UNL1        0.0836
     39 H           2.7868   -2.6623   -0.4322 H       1  UNL1        0.0836
     40 H           0.2210    2.6125   -1.2867 H       1  UNL1        0.0624
     41 H          -2.1159    3.2954   -1.4225 H       1  UNL1        0.0629
@<TRIPOS>BOND
     1     1     2   ar
     2     2     3   ar
     3     3     4   ar
     4     4     5   ar
     5     5     6   ar
     6     5     7    1
     7     7     8    1
     8     8     9   ar
     9     9    10   ar
    10    10    11    1
    11    11    12   ar
    12    12    13   ar
    13    13    14   ar
    14    14    15   ar
    15    15    16   ar
    16    16    17   ar
    17    17    18   ar
    18    18    19   ar
    19    19    20   ar
    20    20    21   ar
    21    21    22   ar
    22    22    23   ar
    23    10    24   ar
    24    24    25   ar
    25    25    26   ar
    26    26    27    1
    27     6     1   ar
    28    26     8   ar
    29    27     4    1
    30    23    11   ar
    31    21    13   ar
    32    20    15   ar
    33     1    28    1
    34     2    29    1
    35     3    30    1
    36     6    31    1
    37     7    32    1
    38     9    33    1
    39    12    34    1
    40    14    35    1
    41    16    36    1
    42    17    37    1
    43    19    38    1
    44    22    39    1
    45    24    40    1
    46    25    41    1
