@<TRIPOS>MOLECULE
*****
 36 40 0 0 0
SMALL
GASTEIGER

@<TRIPOS>ATOM
      1 C          -5.9461    0.4304   -1.7771 C.ar    1  UNL1       -0.0599
      2 C          -6.5739   -0.1204   -0.6654 C.ar    1  UNL1       -0.0606
      3 C          -5.8104   -0.5416    0.4233 C.ar    1  UNL1       -0.0462
      4 C          -4.4123   -0.4205    0.4082 C.ar    1  UNL1        0.0339
      5 C          -3.7714    0.1197   -0.7195 C.ar    1  UNL1        0.0453
      6 C          -4.5556    0.5543   -1.8007 C.ar    1  UNL1       -0.0395
      7 N          -2.3779    0.2956   -0.7778 N.pl3   1  UNL1       -0.3127
      8 C          -1.4371   -0.1044    0.1875 C.ar    1  UNL1        0.0459
      9 C          -0.0711    0.1222   -0.0614 C.ar    1  UNL1       -0.0303
     10 C           0.9121   -0.2197    0.8785 C.ar    1  UNL1        0.0001
     11 C           2.3297    0.0119    0.6052 C.ar    1  UNL1        0.0476
     12 C           3.3456    0.4576    1.4339 C.ar    1  UNL1       -0.0272
     13 C           4.5550    0.4999    0.6869 C.ar    1  UNL1        0.0183
     14 C           5.8752    0.8648    0.9756 C.ar    1  UNL1        0.0367
     15 N           6.8354    0.7884    0.0203 N.ar    1  UNL1       -0.2625
     16 C           6.4942    0.3530   -1.2128 C.ar    1  UNL1        0.0295
     17 C           5.2181   -0.0307   -1.5984 C.ar    1  UNL1       -0.0196
     18 C           4.2514    0.0599   -0.5994 C.ar    1  UNL1        0.0498
     19 N           2.9081   -0.2325   -0.6216 N.ar    1  UNL1       -0.3541
     20 C           0.5127   -0.7800    2.0939 C.ar    1  UNL1       -0.0515
     21 C          -0.8404   -1.0007    2.3606 C.ar    1  UNL1       -0.0456
     22 C          -1.8202   -0.6635    1.4173 C.ar    1  UNL1        0.0339
     23 S          -3.5223   -0.9766    1.8519 S.3     1  UNL1       -0.0857
     24 H          -6.5370    0.7685   -2.6245 H       1  UNL1        0.0618
     25 H          -7.6562   -0.2177   -0.6404 H       1  UNL1        0.0618
     26 H          -6.3152   -0.9637    1.2896 H       1  UNL1        0.0629
     27 H          -4.0863    0.9978   -2.6750 H       1  UNL1        0.0636
     28 H          -2.0070    0.5512   -1.6824 H       1  UNL1        0.1522
     29 H           0.2228    0.5954   -0.9947 H       1  UNL1        0.0643
     30 H           3.2294    0.7378    2.4732 H       1  UNL1        0.0645
     31 H           6.1912    1.2170    1.9506 H       1  UNL1        0.0836
     32 H           7.3161    0.3172   -1.9237 H       1  UNL1        0.0830
     33 H           5.0002   -0.3730   -2.6010 H       1  UNL1        0.0653
     34 H           2.4175   -0.6007   -1.4238 H       1  UNL1        0.1659
     35 H           1.2495   -1.0588    2.8439 H       1  UNL1        0.0624
     36 H          -1.1240   -1.4382    3.3155 H       1  UNL1        0.0629
@<TRIPOS>BOND
     1     1     2   ar
     2     2     3   ar
     3     3     4   ar
     4     4     5   ar
     5     5     6   ar
     6     5     7    1
     7     7     8    1
     8     8     9   ar
     9     9    10   ar
    10    10    11    1
    11    11    12   ar
    12    12    13   ar
    13    13    14   ar
    14    14    15   ar
    15    15    16   ar
    16    16    17   ar
    17    17    18   ar
    18    18    19   ar
    19    10    20   ar
    20    20    21   ar
    21    21    22   ar
    22    22    23    1
    23     6     1   ar
    24    22     8   ar
    25    23     4    1
    26    19    11   ar
    27    18    13   ar
    28     1    24    1
    29     2    25    1
    30     3    26    1
    31     6    27    1
    32     7    28    1
    33     9    29    1
    34    12    30    1
    35    14    31    1
    36    16    32    1
    37    17    33    1
    38    19    34    1
    39    20    35    1
    40    21    36    1
