@<TRIPOS>MOLECULE
*****
 41 45 0 0 0
SMALL
GASTEIGER

@<TRIPOS>ATOM
      1 C          -6.8487   -2.1735   -1.1211 C.ar    1  UNL1       -0.0599
      2 C          -7.5853   -1.2631   -0.3715 C.ar    1  UNL1       -0.0606
      3 C          -6.9280   -0.2613    0.3427 C.ar    1  UNL1       -0.0462
      4 C          -5.5288   -0.1573    0.3090 C.ar    1  UNL1        0.0339
      5 C          -4.7807   -1.0621   -0.4630 C.ar    1  UNL1        0.0453
      6 C          -5.4564   -2.0770   -1.1604 C.ar    1  UNL1       -0.0395
      7 N          -3.3756   -1.0321   -0.5025 N.pl3   1  UNL1       -0.3127
      8 C          -2.5391   -0.0703    0.0920 C.ar    1  UNL1        0.0458
      9 C          -1.1487   -0.1727   -0.0964 C.ar    1  UNL1       -0.0317
     10 C          -0.2480    0.7260    0.5014 C.ar    1  UNL1       -0.0161
     11 C           1.2014    0.6049    0.2816 C.ar    1  UNL1       -0.0178
     12 C           1.7401    0.5985   -1.0121 C.ar    1  UNL1       -0.0534
     13 C           3.1221    0.4857   -1.2231 C.ar    1  UNL1       -0.0519
     14 C           4.0206    0.3690   -0.1487 C.ar    1  UNL1        0.0019
     15 C           5.4788    0.2439   -0.3461 C.ar    1  UNL1        0.0890
     16 C           6.0615   -0.3330   -1.4758 C.ar    1  UNL1        0.0535
     17 N           7.4030   -0.4445   -1.6596 N.ar    1  UNL1       -0.2596
     18 C           8.1602    0.0434   -0.6552 C.ar    1  UNL1        0.0457
     19 C           7.6052    0.6103    0.4768 C.ar    1  UNL1        0.0464
     20 N           6.2680    0.7192    0.6560 N.ar    1  UNL1       -0.2520
     21 C           3.4712    0.3857    1.1453 C.ar    1  UNL1       -0.0519
     22 C           2.0910    0.4992    1.3579 C.ar    1  UNL1       -0.0534
     23 C          -0.7727    1.7372    1.3157 C.ar    1  UNL1       -0.0529
     24 C          -2.1497    1.8429    1.5277 C.ar    1  UNL1       -0.0456
     25 C          -3.0376    0.9414    0.9267 C.ar    1  UNL1        0.0339
     26 S          -4.7772    1.1493    1.2653 S.3     1  UNL1       -0.0857
     27 H          -7.3551   -2.9624   -1.6713 H       1  UNL1        0.0618
     28 H          -8.6693   -1.3342   -0.3355 H       1  UNL1        0.0618
     29 H          -7.5160    0.4389    0.9319 H       1  UNL1        0.0629
     30 H          -4.8986   -2.8065   -1.7418 H       1  UNL1        0.0636
     31 H          -2.9490   -1.5956   -1.2256 H       1  UNL1        0.1522
     32 H          -0.7554   -0.9795   -0.7117 H       1  UNL1        0.0642
     33 H           1.0852    0.7025   -1.8755 H       1  UNL1        0.0624
     34 H           3.4804    0.5155   -2.2498 H       1  UNL1        0.0624
     35 H           5.4638   -0.7464   -2.2806 H       1  UNL1        0.0851
     36 H           9.2335   -0.0354   -0.7836 H       1  UNL1        0.0845
     37 H           8.2239    0.9969    1.2785 H       1  UNL1        0.0845
     38 H           4.1262    0.3052    2.0125 H       1  UNL1        0.0624
     39 H           1.7179    0.4950    2.3804 H       1  UNL1        0.0624
     40 H          -0.1106    2.4591    1.7901 H       1  UNL1        0.0624
     41 H          -2.5237    2.6376    2.1696 H       1  UNL1        0.0629
@<TRIPOS>BOND
     1     1     2   ar
     2     2     3   ar
     3     3     4   ar
     4     4     5   ar
     5     5     6   ar
     6     5     7    1
     7     7     8    1
     8     8     9   ar
     9     9    10   ar
    10    10    11    1
    11    11    12   ar
    12    12    13   ar
    13    13    14   ar
    14    14    15    1
    15    15    16   ar
    16    16    17   ar
    17    17    18   ar
    18    18    19   ar
    19    19    20   ar
    20    14    21   ar
    21    21    22   ar
    22    10    23   ar
    23    23    24   ar
    24    24    25   ar
    25    25    26    1
    26     6     1   ar
    27    25     8   ar
    28    26     4    1
    29    22    11   ar
    30    20    15   ar
    31     1    27    1
    32     2    28    1
    33     3    29    1
    34     6    30    1
    35     7    31    1
    36     9    32    1
    37    12    33    1
    38    13    34    1
    39    16    35    1
    40    18    36    1
    41    19    37    1
    42    21    38    1
    43    22    39    1
    44    23    40    1
    45    24    41    1
