@<TRIPOS>MOLECULE
*****
 35 39 0 0 0
SMALL
GASTEIGER

@<TRIPOS>ATOM
      1 C          -5.6612   -1.5402   -1.5668 C.ar    1  UNL1       -0.0599
      2 C          -6.3270   -0.6107   -0.7756 C.ar    1  UNL1       -0.0606
      3 C          -5.5959    0.2783    0.0125 C.ar    1  UNL1       -0.0462
      4 C          -4.1928    0.2496    0.0120 C.ar    1  UNL1        0.0339
      5 C          -3.5145   -0.6746   -0.8004 C.ar    1  UNL1        0.0453
      6 C          -4.2654   -1.5754   -1.5735 C.ar    1  UNL1       -0.0395
      7 N          -2.1123   -0.7756   -0.8124 N.pl3   1  UNL1       -0.3127
      8 C          -1.2036    0.0601   -0.1391 C.ar    1  UNL1        0.0458
      9 C           0.1750   -0.1644   -0.3059 C.ar    1  UNL1       -0.0317
     10 C           1.1410    0.6040    0.3669 C.ar    1  UNL1       -0.0160
     11 C           2.5787    0.3577    0.1684 C.ar    1  UNL1       -0.0156
     12 C           3.1429    0.4021   -1.1226 C.ar    1  UNL1       -0.0519
     13 C           4.5073    0.1758   -1.3570 C.ar    1  UNL1       -0.0342
     14 C           5.2865   -0.0988   -0.2354 C.ar    1  UNL1        0.0858
     15 N           6.6146   -0.3648   -0.0556 N.ar    1  UNL1       -0.2571
     16 N           6.9149   -0.5716    1.2368 N.ar    1  UNL1       -0.0673
     17 N           5.7905   -0.4443    1.9311 N.ar    1  UNL1       -0.1297
     18 C           4.7794   -0.1538    1.0543 C.ar    1  UNL1        0.1130
     19 C           3.4132    0.0757    1.2691 C.ar    1  UNL1       -0.0247
     20 C           0.6944    1.6077    1.2351 C.ar    1  UNL1       -0.0529
     21 C          -0.6713    1.8332    1.4250 C.ar    1  UNL1       -0.0456
     22 C          -1.6251    1.0621    0.7481 C.ar    1  UNL1        0.0339
     23 S          -3.3452    1.4180    1.0622 S.3     1  UNL1       -0.0857
     24 H          -6.2260   -2.2420   -2.1751 H       1  UNL1        0.0618
     25 H          -7.4134   -0.5798   -0.7645 H       1  UNL1        0.0618
     26 H          -6.1297    0.9946    0.6333 H       1  UNL1        0.0629
     27 H          -3.7649   -2.3181   -2.1893 H       1  UNL1        0.0636
     28 H          -1.7225   -1.3418   -1.5538 H       1  UNL1        0.1522
     29 H           0.5053   -0.9654   -0.9644 H       1  UNL1        0.0642
     30 H           2.5063    0.6333   -1.9770 H       1  UNL1        0.0624
     31 H           4.9232    0.2191   -2.3576 H       1  UNL1        0.0639
     32 H           7.3555   -0.4210   -0.7429 H       1  UNL1        0.1907
     33 H           3.0180    0.0227    2.2787 H       1  UNL1        0.0646
     34 H           1.4089    2.2300    1.7709 H       1  UNL1        0.0624
     35 H          -0.9849    2.6182    2.1099 H       1  UNL1        0.0629
@<TRIPOS>BOND
     1     1     2   ar
     2     2     3   ar
     3     3     4   ar
     4     4     5   ar
     5     5     6   ar
     6     5     7    1
     7     7     8    1
     8     8     9   ar
     9     9    10   ar
    10    10    11    1
    11    11    12   ar
    12    12    13   ar
    13    13    14   ar
    14    14    15   ar
    15    15    16   ar
    16    16    17   ar
    17    17    18   ar
    18    18    19   ar
    19    10    20   ar
    20    20    21   ar
    21    21    22   ar
    22    22    23    1
    23     6     1   ar
    24    22     8   ar
    25    23     4    1
    26    19    11   ar
    27    18    14   ar
    28     1    24    1
    29     2    25    1
    30     3    26    1
    31     6    27    1
    32     7    28    1
    33     9    29    1
    34    12    30    1
    35    13    31    1
    36    15    32    1
    37    19    33    1
    38    20    34    1
    39    21    35    1
