@<TRIPOS>MOLECULE
*****
 46 53 0 0 0
SMALL
GASTEIGER

@<TRIPOS>ATOM
      1 SI         -0.2607   -3.9551    0.3115 Si      1  UNL1        0.0000
      2 C          -1.9148   -3.1761    0.6384 C.2     1  UNL1        0.0000
      3 C          -1.8802   -1.8312    0.5082 C.ar    1  UNL1        0.0000
      4 C          -3.0811   -0.9458    0.5276 C.ar    1  UNL1        0.0000
      5 C          -4.3946   -1.5023    0.7921 C.ar    1  UNL1        0.0000
      6 C          -5.6101   -0.7986    0.6743 C.ar    1  UNL1        0.0000
      7 C          -5.3750    0.4856    0.2206 C.ar    1  UNL1        0.0000
      8 C          -6.3608    1.3858   -0.0885 C.ar    1  UNL1        0.0000
      9 N          -5.7313    2.5084   -0.5678 N.ar    1  UNL1        0.0000
     10 C          -4.3627    2.3210   -0.5693 C.ar    1  UNL1        0.0000
     11 C          -4.0956    1.0831   -0.0268 C.ar    1  UNL1        0.0000
     12 C          -2.8560    0.4369    0.1773 C.ar    1  UNL1        0.0000
     13 C          -1.4987    1.0219    0.0809 C.ar    1  UNL1        0.0000
     14 C          -1.2513    2.3966    0.1099 C.ar    1  UNL1        0.0000
     15 N          -0.0535    3.0244    0.0504 N.ar    1  UNL1        0.0000
     16 C           1.0120    2.1992    0.0386 C.ar    1  UNL1        0.0000
     17 C           2.3807    2.5509    0.0199 C.ar    1  UNL1        0.0000
     18 C           3.1118    1.3830    0.0771 C.ar    1  UNL1        0.0000
     19 N           2.2031    0.3530    0.1575 N.ar    1  UNL1        0.0000
     20 C           0.9077    0.8108    0.0740 C.ar    1  UNL1        0.0000
     21 C          -0.3549    0.1833    0.0782 C.ar    1  UNL1        0.0000
     22 C          -0.5348   -1.2825    0.1815 C.ar    1  UNL1        0.0000
     23 C           0.4006   -2.2369   -0.0190 C.2     1  UNL1        0.0000
     24 C           4.5278    1.1703    0.1051 C.ar    1  UNL1        0.0000
     25 S           5.6055    2.2925    0.8568 S.2     1  UNL1        0.0000
     26 C           7.0024    1.3464    0.5142 C.ar    1  UNL1        0.0000
     27 C           6.6546    0.2182   -0.1702 C.ar    1  UNL1        0.0000
     28 S           7.6661   -1.1274   -0.8101 S.2     1  UNL1        0.0000
     29 C           6.1492   -1.7756   -1.4157 C.ar    1  UNL1        0.0000
     30 C           4.9992   -1.0274   -1.1368 C.ar    1  UNL1        0.0000
     31 C           5.2772    0.1499   -0.3863 C.ar    1  UNL1        0.0000
     32 H           0.3484   -4.5581    1.5207 H       1  UNL1        0.0000
     33 H          -0.2455   -4.8005   -0.9058 H       1  UNL1        0.0000
     34 H          -2.7642   -3.8113    0.8228 H       1  UNL1        0.0000
     35 H          -4.4798   -2.5461    1.0884 H       1  UNL1        0.0000
     36 H          -6.5778   -1.2414    0.8594 H       1  UNL1        0.0000
     37 H          -7.4399    1.3313   -0.0410 H       1  UNL1        0.0000
     38 H          -6.2012    3.3372   -0.9091 H       1  UNL1        0.0000
     39 H          -3.7408    3.0957   -0.9925 H       1  UNL1        0.0000
     40 H          -2.0587    3.1078    0.2395 H       1  UNL1        0.0000
     41 H           2.7744    3.5572   -0.0183 H       1  UNL1        0.0000
     42 H           2.4663   -0.6056    0.3134 H       1  UNL1        0.0000
     43 H           1.4208   -2.1466   -0.3358 H       1  UNL1        0.0000
     44 H           7.9960    1.6502    0.8132 H       1  UNL1        0.0000
     45 H           6.1994   -2.7024   -1.9712 H       1  UNL1        0.0000
     46 H           4.0209   -1.3300   -1.4874 H       1  UNL1        0.0000
@<TRIPOS>BOND
     1     1     2    1
     2     2     3    2
     3     3     4   ar
     4     4     5   ar
     5     5     6   ar
     6     6     7   ar
     7     7     8   ar
     8     8     9   ar
     9     9    10   ar
    10    10    11   ar
    11    11    12   ar
    12    12    13   ar
    13    13    14   ar
    14    14    15   ar
    15    15    16   ar
    16    16    17   ar
    17    17    18   ar
    18    18    19   ar
    19    19    20   ar
    20    20    21   ar
    21    21    22   ar
    22    22    23    2
    23    18    24    1
    24    24    25   ar
    25    25    26   ar
    26    26    27   ar
    27    27    28   ar
    28    28    29   ar
    29    29    30   ar
    30    30    31   ar
    31    23     1    1
    32    31    24   ar
    33    22     3   ar
    34    31    27   ar
    35    12     4   ar
    36    21    13   ar
    37    11     7   ar
    38    20    16   ar
    39     1    32    1
    40     1    33    1
    41     2    34    1
    42     5    35    1
    43     6    36    1
    44     8    37    1
    45     9    38    1
    46    10    39    1
    47    14    40    1
    48    17    41    1
    49    19    42    1
    50    23    43    1
    51    26    44    1
    52    29    45    1
    53    30    46    1
