@<TRIPOS>MOLECULE
*****
 42 47 0 0 0
SMALL
GASTEIGER

@<TRIPOS>ATOM
      1 C          -6.9937    1.7497    1.1427 C.ar    1  UNL1       -0.0599
      2 C          -7.6956    0.6960    0.5679 C.ar    1  UNL1       -0.0606
      3 C          -7.0005   -0.3815    0.0187 C.ar    1  UNL1       -0.0462
      4 C          -5.5974   -0.4122    0.0339 C.ar    1  UNL1        0.0339
      5 C          -4.8827    0.6594    0.5954 C.ar    1  UNL1        0.0453
      6 C          -5.5978    1.7274    1.1618 C.ar    1  UNL1       -0.0395
      7 N          -3.4790    0.6652    0.6751 N.pl3   1  UNL1       -0.3127
      8 C          -2.6026   -0.2890    0.1280 C.ar    1  UNL1        0.0458
      9 C          -1.2166   -0.0918    0.2635 C.ar    1  UNL1       -0.0317
     10 C          -0.2823   -1.0237   -0.2202 C.ar    1  UNL1       -0.0160
     11 C           1.1634   -0.7903   -0.0750 C.ar    1  UNL1       -0.0158
     12 C           1.9695   -1.7113    0.6111 C.ar    1  UNL1       -0.0533
     13 C           3.3491   -1.5121    0.7658 C.ar    1  UNL1       -0.0514
     14 C           3.9474   -0.3612    0.2184 C.ar    1  UNL1        0.0090
     15 C           3.1368    0.5484   -0.4641 C.ar    1  UNL1        0.0492
     16 C           1.7565    0.3624   -0.6235 C.ar    1  UNL1       -0.0300
     17 N           3.9520    1.5682   -0.8999 N.ar    1  UNL1       -0.3390
     18 C           5.2433    1.3453   -0.5165 C.ar    1  UNL1        0.1391
     19 N           6.2704    2.1701   -0.7930 N.ar    1  UNL1       -0.2375
     20 C           7.4489    1.7216   -0.3029 C.ar    1  UNL1        0.0299
     21 C           7.6348    0.5463    0.4140 C.ar    1  UNL1       -0.0429
     22 C           6.5332   -0.2709    0.6720 C.ar    1  UNL1       -0.0490
     23 C           5.2824    0.1472    0.1855 C.ar    1  UNL1        0.0264
     24 C          -0.7673   -2.1816   -0.8400 C.ar    1  UNL1       -0.0529
     25 C          -2.1410   -2.4013   -0.9679 C.ar    1  UNL1       -0.0456
     26 C          -3.0638   -1.4657   -0.4819 C.ar    1  UNL1        0.0339
     27 S          -4.7974   -1.8387   -0.6814 S.3     1  UNL1       -0.0857
     28 H          -7.5304    2.5871    1.5812 H       1  UNL1        0.0618
     29 H          -8.7823    0.7068    0.5517 H       1  UNL1        0.0618
     30 H          -7.5623   -1.2032   -0.4201 H       1  UNL1        0.0629
     31 H          -5.0686    2.5548    1.6273 H       1  UNL1        0.0636
     32 H          -3.0607    1.5517    0.9235 H       1  UNL1        0.1522
     33 H          -0.8536    0.8010    0.7690 H       1  UNL1        0.0642
     34 H           1.5225   -2.6024    1.0492 H       1  UNL1        0.0624
     35 H           3.9464   -2.2412    1.3054 H       1  UNL1        0.0624
     36 H           1.1602    1.0873   -1.1710 H       1  UNL1        0.0644
     37 H           3.6601    2.3753   -1.4283 H       1  UNL1        0.1673
     38 H           8.2972    2.3696   -0.5125 H       1  UNL1        0.0830
     39 H           8.6224    0.2697    0.7670 H       1  UNL1        0.0633
     40 H           6.6402   -1.1958    1.2283 H       1  UNL1        0.0625
     41 H          -0.0755   -2.9231   -1.2352 H       1  UNL1        0.0624
     42 H          -2.4855   -3.3131   -1.4510 H       1  UNL1        0.0629
@<TRIPOS>BOND
     1     1     2   ar
     2     2     3   ar
     3     3     4   ar
     4     4     5   ar
     5     5     6   ar
     6     5     7    1
     7     7     8    1
     8     8     9   ar
     9     9    10   ar
    10    10    11    1
    11    11    12   ar
    12    12    13   ar
    13    13    14   ar
    14    14    15   ar
    15    15    16   ar
    16    15    17   ar
    17    17    18   ar
    18    18    19   ar
    19    19    20   ar
    20    20    21   ar
    21    21    22   ar
    22    22    23   ar
    23    10    24   ar
    24    24    25   ar
    25    25    26   ar
    26    26    27    1
    27     6     1   ar
    28    26     8   ar
    29    27     4    1
    30    16    11   ar
    31    23    18   ar
    32    23    14   ar
    33     1    28    1
    34     2    29    1
    35     3    30    1
    36     6    31    1
    37     7    32    1
    38     9    33    1
    39    12    34    1
    40    13    35    1
    41    16    36    1
    42    17    37    1
    43    20    38    1
    44    21    39    1
    45    22    40    1
    46    24    41    1
    47    25    42    1
