@<TRIPOS>MOLECULE
*****
 42 47 0 0 0
SMALL
GASTEIGER

@<TRIPOS>ATOM
      1 C           7.0439   -2.1475    0.7836 C.ar    1  UNL1       -0.0599
      2 C           7.7850   -1.0512    0.3564 C.ar    1  UNL1       -0.0606
      3 C           7.1299    0.0873   -0.1130 C.ar    1  UNL1       -0.0462
      4 C           5.7281    0.1423   -0.1537 C.ar    1  UNL1        0.0339
      5 C           4.9740   -0.9546    0.2964 C.ar    1  UNL1        0.0453
      6 C           5.6490   -2.1011    0.7468 C.ar    1  UNL1       -0.0395
      7 N           3.5691   -0.9735    0.2399 N.pl3   1  UNL1       -0.3127
      8 C           2.7300    0.0916   -0.1339 C.ar    1  UNL1        0.0458
      9 C           1.3365   -0.0931   -0.0790 C.ar    1  UNL1       -0.0317
     10 C           0.4361    0.9101   -0.4782 C.ar    1  UNL1       -0.0160
     11 C          -1.0181    0.6961   -0.4024 C.ar    1  UNL1       -0.0167
     12 C          -1.8250    0.8467   -1.5322 C.ar    1  UNL1       -0.0534
     13 C          -3.2094    0.6425   -1.4701 C.ar    1  UNL1       -0.0524
     14 C          -3.8342    0.2764   -0.2517 C.ar    1  UNL1       -0.0031
     15 C          -3.0216    0.1295    0.8709 C.ar    1  UNL1        0.0211
     16 C          -1.6263    0.3335    0.8111 C.ar    1  UNL1       -0.0397
     17 S          -3.9340   -0.3113    2.2548 S.2     1  UNL1       -0.0882
     18 C          -5.4169   -0.3178    1.3931 C.ar    1  UNL1        0.0205
     19 C          -6.6935   -0.6121    1.9133 C.ar    1  UNL1       -0.0474
     20 C          -7.7998   -0.5694    1.0629 C.ar    1  UNL1       -0.0607
     21 C          -7.6448   -0.2419   -0.2754 C.ar    1  UNL1       -0.0611
     22 C          -6.3762    0.0492   -0.7860 C.ar    1  UNL1       -0.0529
     23 C          -5.2297    0.0150    0.0510 C.ar    1  UNL1       -0.0031
     24 C           0.9651    2.1161   -0.9539 C.ar    1  UNL1       -0.0529
     25 C           2.3466    2.3094   -1.0328 C.ar    1  UNL1       -0.0456
     26 C           3.2343    1.3021   -0.6329 C.ar    1  UNL1        0.0339
     27 S           4.9807    1.6365   -0.7823 S.3     1  UNL1       -0.0857
     28 H           7.5492   -3.0412    1.1405 H       1  UNL1        0.0618
     29 H           8.8712   -1.0820    0.3809 H       1  UNL1        0.0618
     30 H           7.7221    0.9344   -0.4523 H       1  UNL1        0.0629
     31 H           5.0886   -2.9735    1.0727 H       1  UNL1        0.0636
     32 H           3.1243   -1.7152    0.7642 H       1  UNL1        0.1522
     33 H           0.9417   -1.0452    0.2705 H       1  UNL1        0.0642
     34 H          -1.3811    1.1163   -2.4893 H       1  UNL1        0.0624
     35 H          -3.8052    0.7653   -2.3711 H       1  UNL1        0.0624
     36 H          -1.0287    0.2207    1.7130 H       1  UNL1        0.0635
     37 H          -6.8172   -0.8686    2.9618 H       1  UNL1        0.0629
     38 H          -8.7885   -0.7948    1.4555 H       1  UNL1        0.0618
     39 H          -8.5110   -0.2104   -0.9319 H       1  UNL1        0.0618
     40 H          -6.2723    0.3044   -1.8377 H       1  UNL1        0.0624
     41 H           0.3029    2.9225   -1.2635 H       1  UNL1        0.0624
     42 H           2.7249    3.2565   -1.4114 H       1  UNL1        0.0629
@<TRIPOS>BOND
     1     1     2   ar
     2     2     3   ar
     3     3     4   ar
     4     4     5   ar
     5     5     6   ar
     6     5     7    1
     7     7     8    1
     8     8     9   ar
     9     9    10   ar
    10    10    11    1
    11    11    12   ar
    12    12    13   ar
    13    13    14   ar
    14    14    15   ar
    15    15    16   ar
    16    15    17   ar
    17    17    18   ar
    18    18    19   ar
    19    19    20   ar
    20    20    21   ar
    21    21    22   ar
    22    22    23   ar
    23    10    24   ar
    24    24    25   ar
    25    25    26   ar
    26    26    27    1
    27     6     1   ar
    28    26     8   ar
    29    27     4    1
    30    16    11   ar
    31    23    18   ar
    32    23    14   ar
    33     1    28    1
    34     2    29    1
    35     3    30    1
    36     6    31    1
    37     7    32    1
    38     9    33    1
    39    12    34    1
    40    13    35    1
    41    16    36    1
    42    19    37    1
    43    20    38    1
    44    21    39    1
    45    22    40    1
    46    24    41    1
    47    25    42    1
