@<TRIPOS>MOLECULE
*****
 37 41 0 0 0
SMALL
GASTEIGER

@<TRIPOS>ATOM
      1 C           6.1965   -1.0961   -0.5925 C.ar    1  UNL1       -0.0599
      2 C           6.7380    0.0043    0.0627 C.ar    1  UNL1       -0.0606
      3 C           5.8930    0.9767    0.5978 C.ar    1  UNL1       -0.0462
      4 C           4.4992    0.8543    0.4881 C.ar    1  UNL1        0.0339
      5 C           3.9462   -0.2664   -0.1542 C.ar    1  UNL1        0.0453
      6 C           4.8110   -1.2258   -0.7060 C.ar    1  UNL1       -0.0395
      7 N           2.5598   -0.4212   -0.3329 N.pl3   1  UNL1       -0.3127
      8 C           1.5494    0.4065    0.1894 C.ar    1  UNL1        0.0458
      9 C           0.2052    0.0652   -0.0477 C.ar    1  UNL1       -0.0317
     10 C          -0.8586    0.8663    0.4039 C.ar    1  UNL1       -0.0160
     11 C          -2.2570    0.4830    0.1512 C.ar    1  UNL1       -0.0157
     12 C          -3.1547    1.3710   -0.4514 C.ar    1  UNL1       -0.0519
     13 C          -4.4795    0.9932   -0.6880 C.ar    1  UNL1       -0.0337
     14 C          -4.9445   -0.2651   -0.3359 C.ar    1  UNL1        0.0892
     15 N          -6.2288   -0.5934   -0.5805 N.ar    1  UNL1       -0.2519
     16 C          -6.6110   -1.8343   -0.2104 C.ar    1  UNL1        0.0464
     17 C          -5.7420   -2.7249    0.3848 C.ar    1  UNL1        0.0464
     18 N          -4.4520   -2.4143    0.6362 N.ar    1  UNL1       -0.2519
     19 C          -4.0513   -1.1785    0.2751 C.ar    1  UNL1        0.0897
     20 C          -2.7361   -0.7891    0.5053 C.ar    1  UNL1       -0.0265
     21 C          -0.5446    2.0421    1.0969 C.ar    1  UNL1       -0.0529
     22 C           0.7853    2.4064    1.3236 C.ar    1  UNL1       -0.0456
     23 C           1.8363    1.6005    0.8676 C.ar    1  UNL1        0.0339
     24 S           3.5006    2.1552    1.1928 S.3     1  UNL1       -0.0857
     25 H           6.8504   -1.8515   -1.0207 H       1  UNL1        0.0618
     26 H           7.8158    0.1117    0.1526 H       1  UNL1        0.0618
     27 H           6.3303    1.8368    1.1001 H       1  UNL1        0.0629
     28 H           4.4085   -2.0865   -1.2338 H       1  UNL1        0.0636
     29 H           2.2617   -1.3451   -0.6174 H       1  UNL1        0.1522
     30 H          -0.0179   -0.8402   -0.6092 H       1  UNL1        0.0642
     31 H          -2.8292    2.3644   -0.7554 H       1  UNL1        0.0624
     32 H          -5.1628    1.6948   -1.1602 H       1  UNL1        0.0640
     33 H          -7.6446   -2.0935   -0.4079 H       1  UNL1        0.0845
     34 H          -6.0588   -3.7189    0.6784 H       1  UNL1        0.0845
     35 H          -2.0724   -1.5039    0.9885 H       1  UNL1        0.0645
     36 H          -1.3356    2.6871    1.4749 H       1  UNL1        0.0624
     37 H           0.9941    3.3291    1.8610 H       1  UNL1        0.0629
@<TRIPOS>BOND
     1     1     2   ar
     2     2     3   ar
     3     3     4   ar
     4     4     5   ar
     5     5     6   ar
     6     5     7    1
     7     7     8    1
     8     8     9   ar
     9     9    10   ar
    10    10    11    1
    11    11    12   ar
    12    12    13   ar
    13    13    14   ar
    14    14    15   ar
    15    15    16   ar
    16    16    17   ar
    17    17    18   ar
    18    18    19   ar
    19    19    20   ar
    20    10    21   ar
    21    21    22   ar
    22    22    23   ar
    23    23    24    1
    24     6     1   ar
    25    23     8   ar
    26    24     4    1
    27    20    11   ar
    28    19    14   ar
    29     1    25    1
    30     2    26    1
    31     3    27    1
    32     6    28    1
    33     7    29    1
    34     9    30    1
    35    12    31    1
    36    13    32    1
    37    16    33    1
    38    17    34    1
    39    20    35    1
    40    21    36    1
    41    22    37    1
