@<TRIPOS>MOLECULE
*****
 37 41 0 0 0
SMALL
GASTEIGER

@<TRIPOS>ATOM
      1 C           6.4252   -0.3376    1.1277 C.ar    1  UNL1       -0.0599
      2 C           6.8887    0.1880   -0.0733 C.ar    1  UNL1       -0.0606
      3 C           5.9782    0.6086   -1.0426 C.ar    1  UNL1       -0.0462
      4 C           4.5962    0.5129   -0.8174 C.ar    1  UNL1        0.0339
      5 C           4.1223    0.0012    0.4023 C.ar    1  UNL1        0.0453
      6 C           5.0520   -0.4361    1.3600 C.ar    1  UNL1       -0.0395
      7 N           2.7502   -0.1561    0.6679 N.pl3   1  UNL1       -0.3127
      8 C           1.6838    0.2608   -0.1485 C.ar    1  UNL1        0.0458
      9 C           0.3663    0.0619    0.3042 C.ar    1  UNL1       -0.0317
     10 C          -0.7512    0.4139   -0.4739 C.ar    1  UNL1       -0.0146
     11 C          -2.1184    0.2075    0.0238 C.ar    1  UNL1        0.0023
     12 C          -2.5305    0.6791    1.2665 C.ar    1  UNL1        0.0361
     13 N          -3.7725    0.5154    1.7787 N.ar    1  UNL1       -0.2528
     14 C          -4.6682   -0.1473    1.0213 C.ar    1  UNL1        0.0892
     15 C          -5.9572   -0.3443    1.4911 C.ar    1  UNL1       -0.0328
     16 C          -6.9017   -1.0260    0.7274 C.ar    1  UNL1       -0.0415
     17 C          -6.5136   -1.4987   -0.5105 C.ar    1  UNL1        0.0284
     18 N          -5.2728   -1.3341   -1.0144 N.ar    1  UNL1       -0.2534
     19 C          -4.3753   -0.6701   -0.2556 C.ar    1  UNL1        0.0897
     20 C          -3.0850   -0.4753   -0.7271 C.ar    1  UNL1       -0.0251
     21 C          -0.5191    0.9630   -1.7415 C.ar    1  UNL1       -0.0528
     22 C           0.7826    1.1508   -2.2136 C.ar    1  UNL1       -0.0456
     23 C           1.8874    0.7976   -1.4285 C.ar    1  UNL1        0.0339
     24 S           3.5095    1.0651   -2.1213 S.3     1  UNL1       -0.0857
     25 H           7.1303   -0.6763    1.8824 H       1  UNL1        0.0618
     26 H           7.9566    0.2654   -0.2606 H       1  UNL1        0.0618
     27 H           6.3546    1.0099   -1.9810 H       1  UNL1        0.0629
     28 H           4.7109   -0.8619    2.3001 H       1  UNL1        0.0636
     29 H           2.5157   -0.3528    1.6318 H       1  UNL1        0.1522
     30 H           0.2100   -0.3937    1.2804 H       1  UNL1        0.0642
     31 H          -1.8520    1.2339    1.9109 H       1  UNL1        0.0836
     32 H          -6.2281    0.0418    2.4701 H       1  UNL1        0.0640
     33 H          -7.9103   -1.1810    1.0930 H       1  UNL1        0.0633
     34 H          -7.2073   -2.0376   -1.1498 H       1  UNL1        0.0830
     35 H          -2.8314   -0.8809   -1.7043 H       1  UNL1        0.0646
     36 H          -1.3525    1.2573   -2.3773 H       1  UNL1        0.0624
     37 H           0.9267    1.5757   -3.2049 H       1  UNL1        0.0629
@<TRIPOS>BOND
     1     1     2   ar
     2     2     3   ar
     3     3     4   ar
     4     4     5   ar
     5     5     6   ar
     6     5     7    1
     7     7     8    1
     8     8     9   ar
     9     9    10   ar
    10    10    11    1
    11    11    12   ar
    12    12    13   ar
    13    13    14   ar
    14    14    15   ar
    15    15    16   ar
    16    16    17   ar
    17    17    18   ar
    18    18    19   ar
    19    19    20   ar
    20    10    21   ar
    21    21    22   ar
    22    22    23   ar
    23    23    24    1
    24     6     1   ar
    25    23     8   ar
    26    24     4    1
    27    20    11   ar
    28    19    14   ar
    29     1    25    1
    30     2    26    1
    31     3    27    1
    32     6    28    1
    33     7    29    1
    34     9    30    1
    35    12    31    1
    36    15    32    1
    37    16    33    1
    38    17    34    1
    39    20    35    1
    40    21    36    1
    41    22    37    1
