@<TRIPOS>MOLECULE
*****
 37 41 0 0 0
SMALL
GASTEIGER

@<TRIPOS>ATOM
      1 C          -6.3537    1.1844   -0.8254 C.ar    1  UNL1       -0.0599
      2 C          -6.8391   -0.0919   -0.5629 C.ar    1  UNL1       -0.0606
      3 C          -5.9556   -1.1070   -0.1959 C.ar    1  UNL1       -0.0462
      4 C          -4.5800   -0.8535   -0.0819 C.ar    1  UNL1        0.0339
      5 C          -4.0867    0.4395   -0.3252 C.ar    1  UNL1        0.0453
      6 C          -4.9867    1.4453   -0.7141 C.ar    1  UNL1       -0.0395
      7 N          -2.7144    0.7428   -0.2687 N.pl3   1  UNL1       -0.3127
      8 C          -1.6818   -0.1179    0.1451 C.ar    1  UNL1        0.0458
      9 C          -0.3651    0.3764    0.1879 C.ar    1  UNL1       -0.0317
     10 C           0.7252   -0.4359    0.5476 C.ar    1  UNL1       -0.0146
     11 C           2.0898    0.1044    0.5924 C.ar    1  UNL1        0.0010
     12 C           2.4108    1.2471    1.3158 C.ar    1  UNL1        0.0377
     13 N           3.6457    1.8007    1.3914 N.ar    1  UNL1       -0.2351
     14 C           4.6517    1.2231    0.7348 C.ar    1  UNL1        0.1597
     15 N           5.8627    1.7778    0.8172 N.ar    1  UNL1       -0.2357
     16 C           6.8920    1.2044    0.1564 C.ar    1  UNL1        0.0300
     17 C           6.7754    0.0646   -0.6122 C.ar    1  UNL1       -0.0429
     18 C           5.5222   -0.5200   -0.7055 C.ar    1  UNL1       -0.0496
     19 C           4.4392    0.0577   -0.0269 C.ar    1  UNL1        0.0198
     20 C           3.1488   -0.4947   -0.0904 C.ar    1  UNL1       -0.0419
     21 C           0.4687   -1.7781    0.8549 C.ar    1  UNL1       -0.0528
     22 C          -0.8303   -2.2899    0.7989 C.ar    1  UNL1       -0.0456
     23 C          -1.9080   -1.4710    0.4382 C.ar    1  UNL1        0.0339
     24 S          -3.5269   -2.2184    0.3811 S.3     1  UNL1       -0.0857
     25 H          -7.0364    1.9767   -1.1218 H       1  UNL1        0.0618
     26 H          -7.9021   -0.3014   -0.6495 H       1  UNL1        0.0618
     27 H          -6.3480   -2.1029   -0.0019 H       1  UNL1        0.0629
     28 H          -4.6266    2.4465   -0.9365 H       1  UNL1        0.0636
     29 H          -2.4916    1.7295   -0.2600 H       1  UNL1        0.1522
     30 H          -0.1852    1.4160   -0.0812 H       1  UNL1        0.0642
     31 H           1.6557    1.7766    1.8930 H       1  UNL1        0.0836
     32 H           7.8473    1.7098    0.2693 H       1  UNL1        0.0830
     33 H           7.6349   -0.3544   -1.1228 H       1  UNL1        0.0633
     34 H           5.3918   -1.4184   -1.3029 H       1  UNL1        0.0625
     35 H           2.9716   -1.3873   -0.6867 H       1  UNL1        0.0631
     36 H           1.2794   -2.4422    1.1497 H       1  UNL1        0.0624
     37 H          -0.9944   -3.3382    1.0398 H       1  UNL1        0.0629
@<TRIPOS>BOND
     1     1     2   ar
     2     2     3   ar
     3     3     4   ar
     4     4     5   ar
     5     5     6   ar
     6     5     7    1
     7     7     8    1
     8     8     9   ar
     9     9    10   ar
    10    10    11    1
    11    11    12   ar
    12    12    13   ar
    13    13    14   ar
    14    14    15   ar
    15    15    16   ar
    16    16    17   ar
    17    17    18   ar
    18    18    19   ar
    19    19    20   ar
    20    10    21   ar
    21    21    22   ar
    22    22    23   ar
    23    23    24    1
    24     6     1   ar
    25    23     8   ar
    26    24     4    1
    27    20    11   ar
    28    19    14   ar
    29     1    25    1
    30     2    26    1
    31     3    27    1
    32     6    28    1
    33     7    29    1
    34     9    30    1
    35    12    31    1
    36    16    32    1
    37    17    33    1
    38    18    34    1
    39    20    35    1
    40    21    36    1
    41    22    37    1
