@<TRIPOS>MOLECULE
*****
 35 39 0 0 0
SMALL
GASTEIGER

@<TRIPOS>ATOM
      1 C          -6.0830   -0.0142    1.7976 C.ar    1  UNL1       -0.0599
      2 C          -6.6335    0.1468    0.5310 C.ar    1  UNL1       -0.0606
      3 C          -5.7960    0.2745   -0.5771 C.ar    1  UNL1       -0.0462
      4 C          -4.4009    0.2359   -0.4295 C.ar    1  UNL1        0.0339
      5 C          -3.8394    0.0510    0.8451 C.ar    1  UNL1        0.0453
      6 C          -4.6962   -0.0541    1.9534 C.ar    1  UNL1       -0.0395
      7 N          -2.4487    0.0505    1.0614 N.pl3   1  UNL1       -0.3127
      8 C          -1.4468    0.0985    0.0733 C.ar    1  UNL1        0.0459
      9 C          -0.0955    0.0403    0.4773 C.ar    1  UNL1       -0.0302
     10 C           0.9759    0.1254   -0.4351 C.ar    1  UNL1        0.0037
     11 C           2.4009    0.0545   -0.0249 C.ar    1  UNL1        0.0916
     12 C           2.8446   -0.1159    1.2799 C.ar    1  UNL1        0.0561
     13 N           4.1527   -0.1784    1.6273 N.ar    1  UNL1       -0.2310
     14 C           5.0448   -0.0665    0.6390 C.ar    1  UNL1        0.1977
     15 N           6.3472   -0.1239    0.9509 N.ar    1  UNL1       -0.2316
     16 C           7.2236   -0.0081   -0.0669 C.ar    1  UNL1        0.0482
     17 C           6.8115    0.1612   -1.3699 C.ar    1  UNL1        0.0482
     18 N           5.5070    0.2213   -1.7057 N.ar    1  UNL1       -0.2316
     19 C           4.6168    0.1089   -0.7097 C.ar    1  UNL1        0.1983
     20 N           3.3151    0.1659   -1.0208 N.ar    1  UNL1       -0.2232
     21 C           0.6308    0.2900   -1.7888 C.ar    1  UNL1       -0.0514
     22 C          -0.7015    0.3736   -2.2067 C.ar    1  UNL1       -0.0456
     23 C          -1.7456    0.2876   -1.2825 C.ar    1  UNL1        0.0339
     24 S          -3.4116    0.4194   -1.9030 S.3     1  UNL1       -0.0857
     25 H          -6.7310   -0.1030    2.6658 H       1  UNL1        0.0618
     26 H          -7.7124    0.1806    0.4035 H       1  UNL1        0.0618
     27 H          -6.2400    0.4091   -1.5611 H       1  UNL1        0.0629
     28 H          -4.2868   -0.1660    2.9540 H       1  UNL1        0.0636
     29 H          -2.1598   -0.3065    1.9624 H       1  UNL1        0.1522
     30 H           0.0980   -0.0709    1.5402 H       1  UNL1        0.0643
     31 H           2.1684   -0.2124    2.1209 H       1  UNL1        0.0852
     32 H           8.2737   -0.0559    0.1991 H       1  UNL1        0.0846
     33 H           7.5194    0.2541   -2.1860 H       1  UNL1        0.0846
     34 H           1.4094    0.3642   -2.5488 H       1  UNL1        0.0624
     35 H          -0.9111    0.5115   -3.2655 H       1  UNL1        0.0629
@<TRIPOS>BOND
     1     1     2   ar
     2     2     3   ar
     3     3     4   ar
     4     4     5   ar
     5     5     6   ar
     6     5     7    1
     7     7     8    1
     8     8     9   ar
     9     9    10   ar
    10    10    11    1
    11    11    12   ar
    12    12    13   ar
    13    13    14   ar
    14    14    15   ar
    15    15    16   ar
    16    16    17   ar
    17    17    18   ar
    18    18    19   ar
    19    19    20   ar
    20    10    21   ar
    21    21    22   ar
    22    22    23   ar
    23    23    24    1
    24     6     1   ar
    25    23     8   ar
    26    24     4    1
    27    20    11   ar
    28    19    14   ar
    29     1    25    1
    30     2    26    1
    31     3    27    1
    32     6    28    1
    33     7    29    1
    34     9    30    1
    35    12    31    1
    36    16    32    1
    37    17    33    1
    38    21    34    1
    39    22    35    1
