@<TRIPOS>MOLECULE
*****
 29 32 0 0 0
SMALL
GASTEIGER

@<TRIPOS>ATOM
      1 C          -4.4466    2.1001   -0.0384 C.ar    1  UNL1       -0.0599
      2 C          -5.0485    0.9663   -0.5727 C.ar    1  UNL1       -0.0606
      3 C          -4.2803   -0.1684   -0.8329 C.ar    1  UNL1       -0.0462
      4 C          -2.9022   -0.1775   -0.5673 C.ar    1  UNL1        0.0339
      5 C          -2.2846    0.9728   -0.0479 C.ar    1  UNL1        0.0453
      6 C          -3.0762    2.0998    0.2286 C.ar    1  UNL1       -0.0395
      7 N          -0.9171    1.0081    0.2812 N.pl3   1  UNL1       -0.3127
      8 C           0.0313   -0.0009    0.0321 C.ar    1  UNL1        0.0458
      9 C           1.3737    0.2307    0.3854 C.ar    1  UNL1       -0.0316
     10 C           2.3610   -0.7495    0.2016 C.ar    1  UNL1       -0.0115
     11 C           3.7457   -0.4988    0.5538 C.ar    1  UNL1        0.0408
     12 C           4.9512   -1.0024    0.0143 C.ar    1  UNL1        0.0777
     13 N           6.0293   -0.5256    0.6418 N.ar    1  UNL1       -0.0862
     14 O           5.5338    0.3098    1.6293 O.2     1  UNL1       -0.3623
     15 C           4.1781    0.3177    1.5725 C.ar    1  UNL1        0.1319
     16 C           1.9880   -1.9842   -0.3369 C.ar    1  UNL1       -0.0527
     17 C           0.6544   -2.2363   -0.6692 C.ar    1  UNL1       -0.0456
     18 C          -0.3296   -1.2566   -0.4805 C.ar    1  UNL1        0.0339
     19 S          -2.0055   -1.6792   -0.9220 S.3     1  UNL1       -0.0857
     20 H          -5.0426    2.9834    0.1764 H       1  UNL1        0.0618
     21 H          -6.1154    0.9600   -0.7808 H       1  UNL1        0.0618
     22 H          -4.7661   -1.0514   -1.2425 H       1  UNL1        0.0629
     23 H          -2.6284    2.9917    0.6593 H       1  UNL1        0.0636
     24 H          -0.5395    1.9333    0.4389 H       1  UNL1        0.1522
     25 H           1.6446    1.1995    0.7981 H       1  UNL1        0.0642
     26 H           5.0941   -1.6880   -0.8090 H       1  UNL1        0.0870
     27 H           3.6918    0.9326    2.3152 H       1  UNL1        0.1064
     28 H           2.7183   -2.7760   -0.4875 H       1  UNL1        0.0624
     29 H           0.3872   -3.2111   -1.0726 H       1  UNL1        0.0629
@<TRIPOS>BOND
     1     1     2   ar
     2     2     3   ar
     3     3     4   ar
     4     4     5   ar
     5     5     6   ar
     6     5     7    1
     7     7     8    1
     8     8     9   ar
     9     9    10   ar
    10    10    11    1
    11    11    12   ar
    12    12    13   ar
    13    13    14   ar
    14    14    15   ar
    15    10    16   ar
    16    16    17   ar
    17    17    18   ar
    18    18    19    1
    19     6     1   ar
    20    18     8   ar
    21    19     4    1
    22    15    11   ar
    23     1    20    1
    24     2    21    1
    25     3    22    1
    26     6    23    1
    27     7    24    1
    28     9    25    1
    29    12    26    1
    30    15    27    1
    31    16    28    1
    32    17    29    1
