@<TRIPOS>MOLECULE
*****
 29 32 0 0 0
SMALL
GASTEIGER

@<TRIPOS>ATOM
      1 C          -4.9294    0.5119   -0.2114 C.ar    1  UNL1       -0.0599
      2 C          -5.1944   -0.6219    0.5485 C.ar    1  UNL1       -0.0606
      3 C          -4.1384   -1.3592    1.0840 C.ar    1  UNL1       -0.0462
      4 C          -2.8078   -0.9734    0.8590 C.ar    1  UNL1        0.0339
      5 C          -2.5335    0.1583    0.0730 C.ar    1  UNL1        0.0453
      6 C          -3.6086    0.9026   -0.4404 C.ar    1  UNL1       -0.0395
      7 N          -1.2231    0.6210   -0.1477 N.pl3   1  UNL1       -0.3127
      8 C          -0.0315   -0.0190    0.2428 C.ar    1  UNL1        0.0459
      9 C           1.1979    0.5674   -0.1142 C.ar    1  UNL1       -0.0303
     10 C           2.4217    0.0060    0.2813 C.ar    1  UNL1        0.0027
     11 C           3.7065    0.5958   -0.0885 C.ar    1  UNL1        0.0782
     12 C           3.8924    1.9201   -0.4422 C.ar    1  UNL1        0.0031
     13 S           5.5462    2.2146   -0.7985 S.2     1  UNL1       -0.0833
     14 C           5.8906    0.5750   -0.4438 C.ar    1  UNL1        0.0654
     15 N           4.8679   -0.1665   -0.0823 N.ar    1  UNL1       -0.2474
     16 C           2.4007   -1.1627    1.0497 C.ar    1  UNL1       -0.0514
     17 C           1.1888   -1.7420    1.4330 C.ar    1  UNL1       -0.0456
     18 C          -0.0299   -1.1718    1.0442 C.ar    1  UNL1        0.0339
     19 S          -1.5257   -1.9727    1.5952 S.3     1  UNL1       -0.0857
     20 H          -5.7487    1.0965   -0.6218 H       1  UNL1        0.0618
     21 H          -6.2204   -0.9302    0.7319 H       1  UNL1        0.0618
     22 H          -4.3603   -2.2389    1.6843 H       1  UNL1        0.0629
     23 H          -3.4238    1.8001   -1.0249 H       1  UNL1        0.0636
     24 H          -1.1293    1.2918   -0.8990 H       1  UNL1        0.1522
     25 H           1.1853    1.4684   -0.7207 H       1  UNL1        0.0643
     26 H           3.1720    2.7220   -0.5028 H       1  UNL1        0.0715
     27 H           6.8953    0.1787   -0.5130 H       1  UNL1        0.0907
     28 H           3.3328   -1.6283    1.3658 H       1  UNL1        0.0624
     29 H           1.2068   -2.6434    2.0419 H       1  UNL1        0.0629
@<TRIPOS>BOND
     1     1     2   ar
     2     2     3   ar
     3     3     4   ar
     4     4     5   ar
     5     5     6   ar
     6     5     7    1
     7     7     8    1
     8     8     9   ar
     9     9    10   ar
    10    10    11    1
    11    11    12   ar
    12    12    13   ar
    13    13    14   ar
    14    14    15   ar
    15    10    16   ar
    16    16    17   ar
    17    17    18   ar
    18    18    19    1
    19     6     1   ar
    20    18     8   ar
    21    19     4    1
    22    15    11   ar
    23     1    20    1
    24     2    21    1
    25     3    22    1
    26     6    23    1
    27     7    24    1
    28     9    25    1
    29    12    26    1
    30    14    27    1
    31    16    28    1
    32    17    29    1
