@<TRIPOS>MOLECULE
*****
 35 39 0 0 0
SMALL
GASTEIGER

@<TRIPOS>ATOM
      1 C          -6.1980   -1.1048    0.3776 C.ar    1  UNL1       -0.0599
      2 C          -6.6578   -0.1238   -0.4941 C.ar    1  UNL1       -0.0606
      3 C          -5.7474    0.7237   -1.1255 C.ar    1  UNL1       -0.0462
      4 C          -4.3689    0.5941   -0.8956 C.ar    1  UNL1        0.0339
      5 C          -3.8975   -0.4087   -0.0314 C.ar    1  UNL1        0.0453
      6 C          -4.8283   -1.2408    0.6118 C.ar    1  UNL1       -0.0395
      7 N          -2.5323   -0.5592    0.2692 N.pl3   1  UNL1       -0.3127
      8 C          -1.4625    0.1460   -0.3099 C.ar    1  UNL1        0.0460
      9 C          -0.1505   -0.1774    0.0776 C.ar    1  UNL1       -0.0272
     10 C           0.9622    0.5123   -0.4300 C.ar    1  UNL1        0.0387
     11 C           2.3045    0.1262   -0.0013 C.ar    1  UNL1        0.2285
     12 N           2.6626   -0.8351    0.8332 N.ar    1  UNL1       -0.2090
     13 C           4.0311   -0.7464    0.8653 C.ar    1  UNL1        0.1099
     14 C           4.9878   -1.4917    1.5659 C.ar    1  UNL1       -0.0326
     15 C           6.3407   -1.1604    1.3927 C.ar    1  UNL1       -0.0595
     16 C           6.7277   -0.1146    0.5442 C.ar    1  UNL1       -0.0582
     17 C           5.7824    0.6391   -0.1625 C.ar    1  UNL1       -0.0171
     18 C           4.4555    0.2789    0.0370 C.ar    1  UNL1        0.1557
     19 O           3.3504    0.8460   -0.5253 O.2     1  UNL1       -0.4353
     20 C           0.7419    1.5564   -1.3345 C.ar    1  UNL1       -0.0483
     21 C          -0.5576    1.9032   -1.7146 C.ar    1  UNL1       -0.0455
     22 C          -1.6632    1.2097   -1.2033 C.ar    1  UNL1        0.0339
     23 S          -3.2829    1.7326   -1.7390 S.3     1  UNL1       -0.0857
     24 H          -6.9035   -1.7614    0.8802 H       1  UNL1        0.0618
     25 H          -7.7230   -0.0120   -0.6789 H       1  UNL1        0.0618
     26 H          -6.1215    1.4923   -1.7982 H       1  UNL1        0.0629
     27 H          -4.4905   -2.0054    1.3066 H       1  UNL1        0.0636
     28 H          -2.2834   -1.4185    0.7419 H       1  UNL1        0.1522
     29 H           0.0130   -0.9834    0.7918 H       1  UNL1        0.0644
     30 H           4.6849   -2.3002    2.2217 H       1  UNL1        0.0640
     31 H           7.1006   -1.7268    1.9278 H       1  UNL1        0.0618
     32 H           7.7854    0.1176    0.4315 H       1  UNL1        0.0619
     33 H           6.0618    1.4505   -0.8223 H       1  UNL1        0.0655
     34 H           1.5767    2.1169   -1.7505 H       1  UNL1        0.0625
     35 H          -0.7003    2.7249   -2.4136 H       1  UNL1        0.0629
@<TRIPOS>BOND
     1     1     2   ar
     2     2     3   ar
     3     3     4   ar
     4     4     5   ar
     5     5     6   ar
     6     5     7    1
     7     7     8    1
     8     8     9   ar
     9     9    10   ar
    10    10    11    1
    11    11    12   ar
    12    12    13   ar
    13    13    14   ar
    14    14    15   ar
    15    15    16   ar
    16    16    17   ar
    17    17    18   ar
    18    18    19   ar
    19    10    20   ar
    20    20    21   ar
    21    21    22   ar
    22    22    23    1
    23     6     1   ar
    24    22     8   ar
    25    23     4    1
    26    19    11   ar
    27    18    13   ar
    28     1    24    1
    29     2    25    1
    30     3    26    1
    31     6    27    1
    32     7    28    1
    33     9    29    1
    34    14    30    1
    35    15    31    1
    36    16    32    1
    37    17    33    1
    38    20    34    1
    39    21    35    1
