@<TRIPOS>MOLECULE
*****
 28 31 0 0 0
SMALL
GASTEIGER

@<TRIPOS>ATOM
      1 C          -4.8474    0.1946   -0.1004 C.ar    1  UNL1       -0.0599
      2 C          -4.9264   -0.9119   -0.9388 C.ar    1  UNL1       -0.0606
      3 C          -3.7575   -1.5392   -1.3699 C.ar    1  UNL1       -0.0462
      4 C          -2.4995   -1.0695   -0.9619 C.ar    1  UNL1        0.0339
      5 C          -2.4144    0.0355   -0.0983 C.ar    1  UNL1        0.0453
      6 C          -3.5999    0.6682    0.3105 C.ar    1  UNL1       -0.0395
      7 N          -1.1821    0.5762    0.3099 N.pl3   1  UNL1       -0.3127
      8 C           0.0952    0.0529    0.0399 C.ar    1  UNL1        0.0459
      9 C           1.2196    0.7039    0.5780 C.ar    1  UNL1       -0.0286
     10 C           2.5238    0.2567    0.3136 C.ar    1  UNL1        0.0243
     11 C           3.6831    0.9335    0.8864 C.ar    1  UNL1        0.2019
     12 N           4.9762    0.5216    0.6344 N.ar    1  UNL1       -0.1942
     13 C           5.6814    1.3805    1.3247 C.ar    1  UNL1        0.2147
     14 O           4.9361    2.2959    1.9896 O.2     1  UNL1       -0.3411
     15 N           3.6046    2.0013    1.7008 N.ar    1  UNL1       -0.0564
     16 C           2.6954   -0.8550   -0.5177 C.ar    1  UNL1       -0.0498
     17 C           1.5884   -1.4996   -1.0756 C.ar    1  UNL1       -0.0455
     18 C           0.2882   -1.0493   -0.8086 C.ar    1  UNL1        0.0339
     19 S          -1.0609   -1.9297   -1.5757 S.3     1  UNL1       -0.0857
     20 H          -5.7546    0.6936    0.2304 H       1  UNL1        0.0618
     21 H          -5.8946   -1.2841   -1.2635 H       1  UNL1        0.0618
     22 H          -3.8338   -2.3985   -2.0326 H       1  UNL1        0.0629
     23 H          -3.5597    1.5424    0.9553 H       1  UNL1        0.0636
     24 H          -1.2310    1.2364    1.0750 H       1  UNL1        0.1522
     25 H           1.0727    1.5758    1.2127 H       1  UNL1        0.0643
     26 H           6.7531    1.4520    1.4305 H       1  UNL1        0.1283
     27 H           3.6931   -1.2270   -0.7442 H       1  UNL1        0.0625
     28 H           1.7508   -2.3570   -1.7255 H       1  UNL1        0.0629
@<TRIPOS>BOND
     1     1     2   ar
     2     2     3   ar
     3     3     4   ar
     4     4     5   ar
     5     5     6   ar
     6     5     7    1
     7     7     8    1
     8     8     9   ar
     9     9    10   ar
    10    10    11    1
    11    11    12   ar
    12    12    13   ar
    13    13    14   ar
    14    14    15   ar
    15    10    16   ar
    16    16    17   ar
    17    17    18   ar
    18    18    19    1
    19     6     1   ar
    20    18     8   ar
    21    19     4    1
    22    15    11   ar
    23     1    20    1
    24     2    21    1
    25     3    22    1
    26     6    23    1
    27     7    24    1
    28     9    25    1
    29    13    26    1
    30    16    27    1
    31    17    28    1
