@<TRIPOS>MOLECULE
*****
 43 49 0 0 0
SMALL
GASTEIGER

@<TRIPOS>ATOM
      1 SI         -1.7701    4.4985    0.5809 Si      1  UNL1        0.0000
      2 C          -2.8332    2.9845    0.8050 C.2     1  UNL1        0.0000
      3 C          -2.1619    1.8468    0.5194 C.ar    1  UNL1        0.0000
      4 C          -2.7625    0.4817    0.4899 C.ar    1  UNL1        0.0000
      5 C          -4.1927    0.3006    0.6738 C.ar    1  UNL1        0.0000
      6 C          -4.8922   -0.9053    0.4504 C.ar    1  UNL1        0.0000
      7 C          -4.0237   -1.8626   -0.0392 C.ar    1  UNL1        0.0000
      8 C          -4.3768   -3.1000   -0.5052 C.ar    1  UNL1        0.0000
      9 O          -3.2734   -3.7197   -1.0168 O.2     1  UNL1        0.0000
     10 C          -2.2173   -2.8640   -0.8645 C.ar    1  UNL1        0.0000
     11 C          -2.6101   -1.7261   -0.2012 C.ar    1  UNL1        0.0000
     12 C          -1.8619   -0.5872    0.1408 C.ar    1  UNL1        0.0000
     13 C          -0.4130   -0.3969    0.0523 C.ar    1  UNL1        0.0000
     14 C           0.5991   -1.3662    0.1900 C.ar    1  UNL1        0.0000
     15 C           0.4798   -2.6525    0.6664 C.ar    1  UNL1        0.0000
     16 N           1.7292   -3.2300    0.6547 N.ar    1  UNL1        0.0000
     17 C           2.6681   -2.3071    0.2653 C.ar    1  UNL1        0.0000
     18 C           2.0072   -1.1300    0.0027 C.ar    1  UNL1        0.0000
     19 C           2.5778    0.1052   -0.3146 C.ar    1  UNL1        0.0000
     20 C           1.5929    1.1223   -0.3067 C.ar    1  UNL1        0.0000
     21 C           0.1778    0.9066   -0.0897 C.ar    1  UNL1        0.0000
     22 C          -0.7404    2.0631    0.1301 C.ar    1  UNL1        0.0000
     23 C          -0.3744    3.3637    0.0919 C.2     1  UNL1        0.0000
     24 C           3.9883    0.3568   -0.5165 C.ar    1  UNL1        0.0000
     25 C           4.8051    1.4475   -0.2847 C.ar    1  UNL1        0.0000
     26 C           6.1004    1.0919   -0.7335 C.ar    1  UNL1        0.0000
     27 C           5.9943   -0.1872   -1.2235 C.ar    1  UNL1        0.0000
     28 O           4.7200   -0.6378   -1.1017 O.2     1  UNL1        0.0000
     29 H          -1.5069    5.2041    1.8581 H       1  UNL1        0.0000
     30 H          -2.2276    5.3544   -0.5399 H       1  UNL1        0.0000
     31 H          -3.8646    3.1045    1.0885 H       1  UNL1        0.0000
     32 H          -4.7999    1.1546    0.9696 H       1  UNL1        0.0000
     33 H          -5.9615   -1.0077    0.5643 H       1  UNL1        0.0000
     34 H          -5.3026   -3.6510   -0.5885 H       1  UNL1        0.0000
     35 H          -1.2892   -3.2150   -1.2920 H       1  UNL1        0.0000
     36 H          -0.3618   -3.2202    1.0376 H       1  UNL1        0.0000
     37 H           1.9337   -4.1771    0.9465 H       1  UNL1        0.0000
     38 H           3.7176   -2.5686    0.2500 H       1  UNL1        0.0000
     39 H           1.9445    2.1406   -0.4579 H       1  UNL1        0.0000
     40 H           0.5896    3.7866   -0.1329 H       1  UNL1        0.0000
     41 H           4.5022    2.3844    0.1607 H       1  UNL1        0.0000
     42 H           6.9976    1.6937   -0.7075 H       1  UNL1        0.0000
     43 H           6.6926   -0.8797   -1.6719 H       1  UNL1        0.0000
@<TRIPOS>BOND
     1     1     2    1
     2     2     3    2
     3     3     4   ar
     4     4     5   ar
     5     5     6   ar
     6     6     7   ar
     7     7     8   ar
     8     8     9   ar
     9     9    10   ar
    10    10    11   ar
    11    11    12   ar
    12    12    13   ar
    13    13    14   ar
    14    14    15   ar
    15    15    16   ar
    16    16    17   ar
    17    17    18   ar
    18    18    19   ar
    19    19    20   ar
    20    20    21   ar
    21    21    22   ar
    22    22    23    2
    23    19    24    1
    24    24    25   ar
    25    25    26   ar
    26    26    27   ar
    27    27    28   ar
    28    23     1    1
    29    28    24   ar
    30    22     3   ar
    31    12     4   ar
    32    21    13   ar
    33    11     7   ar
    34    18    14   ar
    35     1    29    1
    36     1    30    1
    37     2    31    1
    38     5    32    1
    39     6    33    1
    40     8    34    1
    41    10    35    1
    42    15    36    1
    43    16    37    1
    44    17    38    1
    45    20    39    1
    46    23    40    1
    47    25    41    1
    48    26    42    1
    49    27    43    1
