@<TRIPOS>MOLECULE
*****
 40 45 0 0 0
SMALL
GASTEIGER

@<TRIPOS>ATOM
      1 C           7.4908    1.1437    0.0823 C.ar    1  UNL1       -0.0581
      2 C           6.8663    2.3029    0.5481 C.ar    1  UNL1       -0.0581
      3 C           5.4743    2.3599    0.6387 C.ar    1  UNL1       -0.0156
      4 C           4.7114    1.2554    0.2625 C.ar    1  UNL1        0.1706
      5 C           5.3348    0.0982   -0.2025 C.ar    1  UNL1        0.1706
      6 C           6.7246    0.0389   -0.2939 C.ar    1  UNL1       -0.0156
      7 O           4.6248   -1.0123   -0.5837 O.3     1  UNL1       -0.4486
      8 C           3.2623   -0.9061   -0.4760 C.ar    1  UNL1        0.1706
      9 C           2.4955   -2.0011   -0.8485 C.ar    1  UNL1       -0.0150
     10 C           1.1000   -1.9336   -0.7538 C.ar    1  UNL1       -0.0489
     11 C           0.4300   -0.7794   -0.2875 C.ar    1  UNL1        0.0041
     12 C          -1.0584   -0.7502   -0.2025 C.ar    1  UNL1        0.0731
     13 C          -1.7840    0.3557    0.2483 C.ar    1  UNL1       -0.0117
     14 C          -3.1762    0.2283    0.2699 C.ar    1  UNL1        0.0510
     15 N          -4.1497    1.1207    0.6530 N.ar    1  UNL1       -0.3540
     16 C          -5.4005    0.5689    0.5083 C.ar    1  UNL1        0.0504
     17 C          -6.6616    1.0999    0.7702 C.ar    1  UNL1       -0.0196
     18 C          -7.7222    0.2475    0.5034 C.ar    1  UNL1        0.0295
     19 N          -7.6039   -1.0107    0.0257 N.ar    1  UNL1       -0.2625
     20 C          -6.3653   -1.5047   -0.2213 C.ar    1  UNL1        0.0373
     21 C          -5.2263   -0.7242    0.0147 C.ar    1  UNL1        0.0269
     22 C          -3.8206   -0.9364   -0.1348 C.ar    1  UNL1        0.0270
     23 C          -3.0326   -2.0016   -0.5735 C.ar    1  UNL1        0.0380
     24 N          -1.6800   -1.8934   -0.6003 N.ar    1  UNL1       -0.2542
     25 C           1.2427    0.3110    0.0809 C.ar    1  UNL1       -0.0065
     26 C           2.6380    0.2460   -0.0129 C.ar    1  UNL1        0.1712
     27 O           3.3471    1.3588    0.3692 O.3     1  UNL1       -0.4486
     28 H           8.5749    1.1009    0.0123 H       1  UNL1        0.0619
     29 H           7.4649    3.1621    0.8405 H       1  UNL1        0.0619
     30 H           4.9877    3.2609    1.0008 H       1  UNL1        0.0655
     31 H           7.2086   -0.8635   -0.6564 H       1  UNL1        0.0655
     32 H           2.9716   -2.9072   -1.2120 H       1  UNL1        0.0656
     33 H           0.5252   -2.8099   -1.0538 H       1  UNL1        0.0625
     34 H          -1.3151    1.2749    0.5697 H       1  UNL1        0.0660
     35 H          -3.9711    2.0545    0.9942 H       1  UNL1        0.1659
     36 H          -6.8130    2.1005    1.1530 H       1  UNL1        0.0653
     37 H          -8.7453    0.5726    0.6762 H       1  UNL1        0.0830
     38 H          -6.3211   -2.5181   -0.6035 H       1  UNL1        0.0836
     39 H          -3.4434   -2.9474   -0.9077 H       1  UNL1        0.0836
     40 H           0.8149    1.2374    0.4497 H       1  UNL1        0.0662
@<TRIPOS>BOND
     1     1     2   ar
     2     2     3   ar
     3     3     4   ar
     4     4     5   ar
     5     5     6   ar
     6     5     7    1
     7     7     8    1
     8     8     9   ar
     9     9    10   ar
    10    10    11   ar
    11    11    12    1
    12    12    13   ar
    13    13    14   ar
    14    14    15   ar
    15    15    16   ar
    16    16    17   ar
    17    17    18   ar
    18    18    19   ar
    19    19    20   ar
    20    20    21   ar
    21    21    22   ar
    22    22    23   ar
    23    23    24   ar
    24    11    25   ar
    25    25    26   ar
    26    26    27    1
    27     6     1   ar
    28    26     8   ar
    29    27     4    1
    30    24    12   ar
    31    22    14   ar
    32    21    16   ar
    33     1    28    1
    34     2    29    1
    35     3    30    1
    36     6    31    1
    37     9    32    1
    38    10    33    1
    39    13    34    1
    40    15    35    1
    41    17    36    1
    42    18    37    1
    43    20    38    1
    44    23    39    1
    45    25    40    1
