@<TRIPOS>MOLECULE
*****
 35 39 0 0 0
SMALL
GASTEIGER

@<TRIPOS>ATOM
      1 C          -6.4474    0.4929   -0.1059 C.ar    1  UNL1       -0.0581
      2 C          -5.9555    1.5723    0.6314 C.ar    1  UNL1       -0.0581
      3 C          -4.5814    1.7136    0.8339 C.ar    1  UNL1       -0.0156
      4 C          -3.7035    0.7729    0.2972 C.ar    1  UNL1        0.1706
      5 C          -4.1945   -0.3047   -0.4388 C.ar    1  UNL1        0.1706
      6 C          -5.5662   -0.4478   -0.6423 C.ar    1  UNL1       -0.0156
      7 O          -3.3684   -1.2542   -0.9854 O.3     1  UNL1       -0.4486
      8 C          -2.0288   -1.0712   -0.7586 C.ar    1  UNL1        0.1706
      9 C          -1.1486   -2.0054   -1.2910 C.ar    1  UNL1       -0.0150
     10 C           0.2282   -1.8590   -1.0849 C.ar    1  UNL1       -0.0489
     11 C           0.7475   -0.7809   -0.3462 C.ar    1  UNL1        0.0020
     12 C           2.2015   -0.6505   -0.1443 C.ar    1  UNL1        0.0476
     13 C           3.2505   -1.4513   -0.5767 C.ar    1  UNL1       -0.0272
     14 C           4.4787   -0.8989   -0.1203 C.ar    1  UNL1        0.0183
     15 C           5.8256   -1.2594   -0.2442 C.ar    1  UNL1        0.0367
     16 N           6.7962   -0.5011    0.3244 N.ar    1  UNL1       -0.2625
     17 C           6.4381    0.6066    1.0111 C.ar    1  UNL1        0.0295
     18 C           5.1348    1.0471    1.1901 C.ar    1  UNL1       -0.0196
     19 C           4.1596    0.2493    0.5957 C.ar    1  UNL1        0.0498
     20 N           2.7909    0.3768    0.5673 N.ar    1  UNL1       -0.3541
     21 C          -0.1614    0.1503    0.1818 C.ar    1  UNL1       -0.0065
     22 C          -1.5365    0.0029   -0.0248 C.ar    1  UNL1        0.1712
     23 O          -2.3620    0.9541    0.5230 O.3     1  UNL1       -0.4486
     24 H          -7.5178    0.3845   -0.2625 H       1  UNL1        0.0619
     25 H          -6.6435    2.3037    1.0483 H       1  UNL1        0.0619
     26 H          -4.1981    2.5527    1.4071 H       1  UNL1        0.0655
     27 H          -5.9473   -1.2878   -1.2160 H       1  UNL1        0.0655
     28 H          -1.5265   -2.8467   -1.8652 H       1  UNL1        0.0656
     29 H           0.8882   -2.6079   -1.5153 H       1  UNL1        0.0625
     30 H           3.1566   -2.3531   -1.1671 H       1  UNL1        0.0645
     31 H           6.1550   -2.1384   -0.7856 H       1  UNL1        0.0836
     32 H           7.2688    1.1632    1.4379 H       1  UNL1        0.0830
     33 H           4.9035    1.9430    1.7503 H       1  UNL1        0.0653
     34 H           2.2936    1.1316    1.0147 H       1  UNL1        0.1659
     35 H           0.1701    1.0051    0.7609 H       1  UNL1        0.0662
@<TRIPOS>BOND
     1     1     2   ar
     2     2     3   ar
     3     3     4   ar
     4     4     5   ar
     5     5     6   ar
     6     5     7    1
     7     7     8    1
     8     8     9   ar
     9     9    10   ar
    10    10    11   ar
    11    11    12    1
    12    12    13   ar
    13    13    14   ar
    14    14    15   ar
    15    15    16   ar
    16    16    17   ar
    17    17    18   ar
    18    18    19   ar
    19    19    20   ar
    20    11    21   ar
    21    21    22   ar
    22    22    23    1
    23     6     1   ar
    24    22     8   ar
    25    23     4    1
    26    20    12   ar
    27    19    14   ar
    28     1    24    1
    29     2    25    1
    30     3    26    1
    31     6    27    1
    32     9    28    1
    33    10    29    1
    34    13    30    1
    35    15    31    1
    36    17    32    1
    37    18    33    1
    38    20    34    1
    39    21    35    1
