@<TRIPOS>MOLECULE
*****
 40 44 0 0 0
SMALL
GASTEIGER

@<TRIPOS>ATOM
      1 C          -7.5658    0.3221    0.0438 C.ar    1  UNL1       -0.0581
      2 C          -7.1719   -0.1794   -1.1988 C.ar    1  UNL1       -0.0581
      3 C          -5.8165   -0.3495   -1.4871 C.ar    1  UNL1       -0.0156
      4 C          -4.8591   -0.0168   -0.5299 C.ar    1  UNL1        0.1706
      5 C          -5.2523    0.4839    0.7105 C.ar    1  UNL1        0.1706
      6 C          -6.6052    0.6546    1.0007 C.ar    1  UNL1       -0.0156
      7 O          -4.3459    0.8249    1.6827 O.3     1  UNL1       -0.4486
      8 C          -3.0277    0.6399    1.3513 C.ar    1  UNL1        0.1706
      9 C          -2.0699    0.9725    2.3043 C.ar    1  UNL1       -0.0151
     10 C          -0.7129    0.8015    2.0126 C.ar    1  UNL1       -0.0503
     11 C          -0.2942    0.2961    0.7679 C.ar    1  UNL1       -0.0142
     12 C           1.1351    0.1171    0.4654 C.ar    1  UNL1       -0.0177
     13 C           2.0459    1.1719    0.6142 C.ar    1  UNL1       -0.0534
     14 C           3.4078    1.0035    0.3241 C.ar    1  UNL1       -0.0519
     15 C           3.9154   -0.2288   -0.1214 C.ar    1  UNL1        0.0019
     16 C           5.3458   -0.4317   -0.4278 C.ar    1  UNL1        0.0890
     17 C           6.3788    0.2764    0.1889 C.ar    1  UNL1        0.0535
     18 N           7.6946    0.0929   -0.0957 N.ar    1  UNL1       -0.2596
     19 C           7.9518   -0.8443   -1.0314 C.ar    1  UNL1        0.0457
     20 C           6.9459   -1.5643   -1.6484 C.ar    1  UNL1        0.0464
     21 N           5.6362   -1.3787   -1.3616 N.ar    1  UNL1       -0.2520
     22 C           2.9931   -1.2783   -0.2767 C.ar    1  UNL1       -0.0519
     23 C           1.6322   -1.1114    0.0120 C.ar    1  UNL1       -0.0534
     24 C          -1.2799   -0.0332   -0.1785 C.ar    1  UNL1       -0.0079
     25 C          -2.6342    0.1388    0.1135 C.ar    1  UNL1        0.1712
     26 O          -3.5401   -0.2019   -0.8598 O.3     1  UNL1       -0.4486
     27 H          -8.6218    0.4538    0.2665 H       1  UNL1        0.0619
     28 H          -7.9213   -0.4377   -1.9429 H       1  UNL1        0.0619
     29 H          -5.5085   -0.7393   -2.4531 H       1  UNL1        0.0655
     30 H          -6.9099    1.0447    1.9676 H       1  UNL1        0.0655
     31 H          -2.3748    1.3603    3.2721 H       1  UNL1        0.0656
     32 H           0.0224    1.0551    2.7742 H       1  UNL1        0.0625
     33 H           1.6981    2.1502    0.9419 H       1  UNL1        0.0624
     34 H           4.0581    1.8686    0.4336 H       1  UNL1        0.0624
     35 H           6.1861    1.0178    0.9564 H       1  UNL1        0.0851
     36 H           8.9960   -1.0048   -1.2731 H       1  UNL1        0.0845
     37 H           7.1651   -2.3167   -2.3972 H       1  UNL1        0.0845
     38 H           3.3350   -2.2521   -0.6262 H       1  UNL1        0.0624
     39 H           0.9644   -1.9616   -0.1143 H       1  UNL1        0.0624
     40 H          -0.9957   -0.4160   -1.1562 H       1  UNL1        0.0662
@<TRIPOS>BOND
     1     1     2   ar
     2     2     3   ar
     3     3     4   ar
     4     4     5   ar
     5     5     6   ar
     6     5     7    1
     7     7     8    1
     8     8     9   ar
     9     9    10   ar
    10    10    11   ar
    11    11    12    1
    12    12    13   ar
    13    13    14   ar
    14    14    15   ar
    15    15    16    1
    16    16    17   ar
    17    17    18   ar
    18    18    19   ar
    19    19    20   ar
    20    20    21   ar
    21    15    22   ar
    22    22    23   ar
    23    11    24   ar
    24    24    25   ar
    25    25    26    1
    26     6     1   ar
    27    25     8   ar
    28    26     4    1
    29    23    12   ar
    30    21    16   ar
    31     1    27    1
    32     2    28    1
    33     3    29    1
    34     6    30    1
    35     9    31    1
    36    10    32    1
    37    13    33    1
    38    14    34    1
    39    17    35    1
    40    19    36    1
    41    20    37    1
    42    22    38    1
    43    23    39    1
    44    24    40    1
