@<TRIPOS>MOLECULE
*****
 34 38 0 0 0
SMALL
GASTEIGER

@<TRIPOS>ATOM
      1 C           6.2044   -0.3846   -0.3571 C.ar    1  UNL1       -0.0581
      2 C           5.9231    0.6749    0.5083 C.ar    1  UNL1       -0.0581
      3 C           4.5993    1.0361    0.7654 C.ar    1  UNL1       -0.0156
      4 C           3.5605    0.3349    0.1548 C.ar    1  UNL1        0.1706
      5 C           3.8412   -0.7228   -0.7091 C.ar    1  UNL1        0.1706
      6 C           5.1623   -1.0853   -0.9674 C.ar    1  UNL1       -0.0156
      7 O           2.8518   -1.4410   -1.3322 O.3     1  UNL1       -0.4486
      8 C           1.5688   -1.0488   -1.0464 C.ar    1  UNL1        0.1706
      9 C           0.5299   -1.7475   -1.6538 C.ar    1  UNL1       -0.0151
     10 C          -0.7953   -1.3842   -1.3938 C.ar    1  UNL1       -0.0503
     11 C          -1.1005   -0.3204   -0.5248 C.ar    1  UNL1       -0.0141
     12 C          -2.4977    0.0591   -0.2536 C.ar    1  UNL1       -0.0156
     13 C          -3.3796    0.3581   -1.3119 C.ar    1  UNL1       -0.0519
     14 C          -4.7169    0.7250   -1.0990 C.ar    1  UNL1       -0.0342
     15 C          -5.1355    0.7796    0.2284 C.ar    1  UNL1        0.0858
     16 N          -6.3243    1.0872    0.8273 N.ar    1  UNL1       -0.2571
     17 N          -6.2498    1.0011    2.1654 N.ar    1  UNL1       -0.0673
     18 N          -5.0105    0.6361    2.4713 N.ar    1  UNL1       -0.1297
     19 C          -4.3079    0.4951    1.3042 C.ar    1  UNL1        0.1130
     20 C          -2.9742    0.1307    1.0715 C.ar    1  UNL1       -0.0247
     21 C          -0.0350    0.3697    0.0781 C.ar    1  UNL1       -0.0079
     22 C           1.2876    0.0066   -0.1832 C.ar    1  UNL1        0.1712
     23 O           2.2765    0.7270    0.4387 O.3     1  UNL1       -0.4486
     24 H           7.2359   -0.6647   -0.5557 H       1  UNL1        0.0619
     25 H           6.7358    1.2192    0.9830 H       1  UNL1        0.0619
     26 H           4.3789    1.8597    1.4385 H       1  UNL1        0.0655
     27 H           5.3796   -1.9098   -1.6404 H       1  UNL1        0.0655
     28 H           0.7472   -2.5741   -2.3242 H       1  UNL1        0.0656
     29 H          -1.5956   -1.9499   -1.8675 H       1  UNL1        0.0625
     30 H          -3.0161    0.3182   -2.3391 H       1  UNL1        0.0624
     31 H          -5.3779    0.9550   -1.9274 H       1  UNL1        0.0639
     32 H          -7.2037    1.3565    0.4046 H       1  UNL1        0.1907
     33 H          -2.3329   -0.1006    1.9162 H       1  UNL1        0.0646
     34 H          -0.2294    1.2037    0.7489 H       1  UNL1        0.0662
@<TRIPOS>BOND
     1     1     2   ar
     2     2     3   ar
     3     3     4   ar
     4     4     5   ar
     5     5     6   ar
     6     5     7    1
     7     7     8    1
     8     8     9   ar
     9     9    10   ar
    10    10    11   ar
    11    11    12    1
    12    12    13   ar
    13    13    14   ar
    14    14    15   ar
    15    15    16   ar
    16    16    17   ar
    17    17    18   ar
    18    18    19   ar
    19    19    20   ar
    20    11    21   ar
    21    21    22   ar
    22    22    23    1
    23     6     1   ar
    24    22     8   ar
    25    23     4    1
    26    20    12   ar
    27    19    15   ar
    28     1    24    1
    29     2    25    1
    30     3    26    1
    31     6    27    1
    32     9    28    1
    33    10    29    1
    34    13    30    1
    35    14    31    1
    36    16    32    1
    37    20    33    1
    38    21    34    1
