@<TRIPOS>MOLECULE
*****
 41 46 0 0 0
SMALL
GASTEIGER

@<TRIPOS>ATOM
      1 C           7.6245   -0.3029    0.3577 C.ar    1  UNL1       -0.0581
      2 C           7.1339   -1.4160    1.0441 C.ar    1  UNL1       -0.0581
      3 C           5.7576   -1.5938    1.1962 C.ar    1  UNL1       -0.0156
      4 C           4.8760   -0.6560    0.6603 C.ar    1  UNL1        0.1706
      5 C           5.3657    0.4552   -0.0247 C.ar    1  UNL1        0.1706
      6 C           6.7397    0.6348   -0.1780 C.ar    1  UNL1       -0.0156
      7 O           4.5364    1.4037   -0.5683 O.3     1  UNL1       -0.4486
      8 C           3.1938    1.1848   -0.3917 C.ar    1  UNL1        0.1706
      9 C           2.3119    2.1205   -0.9240 C.ar    1  UNL1       -0.0151
     10 C           0.9338    1.9403   -0.7696 C.ar    1  UNL1       -0.0503
     11 C           0.4190    0.8250   -0.0836 C.ar    1  UNL1       -0.0141
     12 C          -1.0333    0.6380    0.0747 C.ar    1  UNL1       -0.0158
     13 C          -1.8231    1.6386    0.6618 C.ar    1  UNL1       -0.0533
     14 C          -3.2079    1.4860    0.8247 C.ar    1  UNL1       -0.0514
     15 C          -3.8290    0.3004    0.3884 C.ar    1  UNL1        0.0090
     16 C          -3.0353   -0.6894   -0.1949 C.ar    1  UNL1        0.0492
     17 C          -1.6503   -0.5498   -0.3616 C.ar    1  UNL1       -0.0300
     18 N          -3.8702   -1.7301   -0.5328 N.ar    1  UNL1       -0.3390
     19 C          -5.1586   -1.4419   -0.1847 C.ar    1  UNL1        0.1391
     20 N          -6.2025   -2.2671   -0.3870 N.ar    1  UNL1       -0.2375
     21 C          -7.3734   -1.7469    0.0472 C.ar    1  UNL1        0.0299
     22 C          -7.5369   -0.5028    0.6433 C.ar    1  UNL1       -0.0429
     23 C          -6.4188    0.3117    0.8280 C.ar    1  UNL1       -0.0490
     24 C          -5.1749   -0.1795    0.3951 C.ar    1  UNL1        0.0264
     25 C           1.3284   -0.1067    0.4453 C.ar    1  UNL1       -0.0079
     26 C           2.7039    0.0747    0.2912 C.ar    1  UNL1        0.1712
     27 O           3.5327   -0.8744    0.8354 O.3     1  UNL1       -0.4486
     28 H           8.6966   -0.1661    0.2403 H       1  UNL1        0.0619
     29 H           7.8244   -2.1452    1.4608 H       1  UNL1        0.0619
     30 H           5.3745   -2.4588    1.7299 H       1  UNL1        0.0655
     31 H           7.1197    1.5011   -0.7119 H       1  UNL1        0.0655
     32 H           2.6917    2.9857   -1.4598 H       1  UNL1        0.0656
     33 H           0.2565    2.6750   -1.2017 H       1  UNL1        0.0625
     34 H          -1.3595    2.5581    1.0157 H       1  UNL1        0.0624
     35 H          -3.7914    2.2771    1.2864 H       1  UNL1        0.0624
     36 H          -1.0682   -1.3392   -0.8297 H       1  UNL1        0.0644
     37 H          -3.5926   -2.5925   -0.9744 H       1  UNL1        0.1673
     38 H          -8.2347   -2.3939   -0.1040 H       1  UNL1        0.0830
     39 H          -8.5200   -0.1715    0.9597 H       1  UNL1        0.0633
     40 H          -6.5081    1.2890    1.2897 H       1  UNL1        0.0625
     41 H           0.9679   -0.9752    0.9918 H       1  UNL1        0.0662
@<TRIPOS>BOND
     1     1     2   ar
     2     2     3   ar
     3     3     4   ar
     4     4     5   ar
     5     5     6   ar
     6     5     7    1
     7     7     8    1
     8     8     9   ar
     9     9    10   ar
    10    10    11   ar
    11    11    12    1
    12    12    13   ar
    13    13    14   ar
    14    14    15   ar
    15    15    16   ar
    16    16    17   ar
    17    16    18   ar
    18    18    19   ar
    19    19    20   ar
    20    20    21   ar
    21    21    22   ar
    22    22    23   ar
    23    23    24   ar
    24    11    25   ar
    25    25    26   ar
    26    26    27    1
    27     6     1   ar
    28    26     8   ar
    29    27     4    1
    30    17    12   ar
    31    24    19   ar
    32    24    15   ar
    33     1    28    1
    34     2    29    1
    35     3    30    1
    36     6    31    1
    37     9    32    1
    38    10    33    1
    39    13    34    1
    40    14    35    1
    41    17    36    1
    42    18    37    1
    43    21    38    1
    44    22    39    1
    45    23    40    1
    46    25    41    1
