@<TRIPOS>MOLECULE
*****
 41 46 0 0 0
SMALL
GASTEIGER

@<TRIPOS>ATOM
      1 C          -7.7479   -0.3352    0.3265 C.ar    1  UNL1       -0.0581
      2 C          -7.2654   -0.8663    1.5247 C.ar    1  UNL1       -0.0581
      3 C          -5.8900   -0.9491    1.7498 C.ar    1  UNL1       -0.0156
      4 C          -5.0015   -0.4996    0.7740 C.ar    1  UNL1        0.1706
      5 C          -5.4833    0.0304   -0.4222 C.ar    1  UNL1        0.1706
      6 C          -6.8562    0.1142   -0.6493 C.ar    1  UNL1       -0.0156
      7 O          -4.6469    0.4846   -1.4107 O.3     1  UNL1       -0.4486
      8 C          -3.3056    0.3820   -1.1421 C.ar    1  UNL1        0.1706
      9 C          -2.4166    0.8291   -2.1147 C.ar    1  UNL1       -0.0151
     10 C          -1.0395    0.7449   -1.8866 C.ar    1  UNL1       -0.0503
     11 C          -0.5322    0.2148   -0.6860 C.ar    1  UNL1       -0.0141
     12 C           0.9187    0.1289   -0.4494 C.ar    1  UNL1       -0.0167
     13 C           1.7573   -0.5191   -1.3592 C.ar    1  UNL1       -0.0534
     14 C           3.1384   -0.6066   -1.1419 C.ar    1  UNL1       -0.0524
     15 C           3.7280   -0.0356    0.0135 C.ar    1  UNL1       -0.0031
     16 C           2.8845    0.6094    0.9159 C.ar    1  UNL1        0.0211
     17 C           1.4923    0.6978    0.7002 C.ar    1  UNL1       -0.0397
     18 S           3.7567    1.2424    2.2503 S.2     1  UNL1       -0.0882
     19 C           5.2623    0.6723    1.6591 C.ar    1  UNL1        0.0205
     20 C           6.5227    0.8295    2.2703 C.ar    1  UNL1       -0.0474
     21 C           7.6518    0.2976    1.6451 C.ar    1  UNL1       -0.0607
     22 C           7.5350   -0.3762    0.4390 C.ar    1  UNL1       -0.0611
     23 C           6.2823   -0.5292   -0.1629 C.ar    1  UNL1       -0.0529
     24 C           5.1133   -0.0007    0.4459 C.ar    1  UNL1       -0.0031
     25 C          -1.4492   -0.2299    0.2819 C.ar    1  UNL1       -0.0079
     26 C          -2.8237   -0.1461    0.0525 C.ar    1  UNL1        0.1712
     27 O          -3.6595   -0.6017    1.0414 O.3     1  UNL1       -0.4486
     28 H          -8.8193   -0.2714    0.1529 H       1  UNL1        0.0619
     29 H          -7.9612   -1.2157    2.2835 H       1  UNL1        0.0619
     30 H          -5.5131   -1.3618    2.6812 H       1  UNL1        0.0655
     31 H          -7.2300    0.5275   -1.5816 H       1  UNL1        0.0655
     32 H          -2.7904    1.2449   -3.0461 H       1  UNL1        0.0656
     33 H          -0.3581    1.1105   -2.6530 H       1  UNL1        0.0625
     34 H           1.3415   -0.9810   -2.2533 H       1  UNL1        0.0624
     35 H           3.7589   -1.1224   -1.8704 H       1  UNL1        0.0624
     36 H           0.8702    1.2195    1.4242 H       1  UNL1        0.0635
     37 H           6.6163    1.3573    3.2155 H       1  UNL1        0.0629
     38 H           8.6282    0.4141    2.1095 H       1  UNL1        0.0618
     39 H           8.4188   -0.7880   -0.0422 H       1  UNL1        0.0618
     40 H           6.2083   -1.0603   -1.1085 H       1  UNL1        0.0624
     41 H          -1.0959   -0.6556    1.2184 H       1  UNL1        0.0662
@<TRIPOS>BOND
     1     1     2   ar
     2     2     3   ar
     3     3     4   ar
     4     4     5   ar
     5     5     6   ar
     6     5     7    1
     7     7     8    1
     8     8     9   ar
     9     9    10   ar
    10    10    11   ar
    11    11    12    1
    12    12    13   ar
    13    13    14   ar
    14    14    15   ar
    15    15    16   ar
    16    16    17   ar
    17    16    18   ar
    18    18    19   ar
    19    19    20   ar
    20    20    21   ar
    21    21    22   ar
    22    22    23   ar
    23    23    24   ar
    24    11    25   ar
    25    25    26   ar
    26    26    27    1
    27     6     1   ar
    28    26     8   ar
    29    27     4    1
    30    17    12   ar
    31    24    19   ar
    32    24    15   ar
    33     1    28    1
    34     2    29    1
    35     3    30    1
    36     6    31    1
    37     9    32    1
    38    10    33    1
    39    13    34    1
    40    14    35    1
    41    17    36    1
    42    20    37    1
    43    21    38    1
    44    22    39    1
    45    23    40    1
    46    25    41    1
