@<TRIPOS>MOLECULE
*****
 36 40 0 0 0
SMALL
GASTEIGER

@<TRIPOS>ATOM
      1 C          -6.6735   -0.1651    0.1467 C.ar    1  UNL1       -0.0581
      2 C          -6.2891   -1.5074    0.1799 C.ar    1  UNL1       -0.0581
      3 C          -4.9371   -1.8500    0.1183 C.ar    1  UNL1       -0.0156
      4 C          -3.9735   -0.8470    0.0236 C.ar    1  UNL1        0.1706
      5 C          -4.3572    0.4930   -0.0095 C.ar    1  UNL1        0.1706
      6 C          -5.7067    0.8376    0.0519 C.ar    1  UNL1       -0.0156
      7 O          -3.4445    1.5135   -0.1018 O.3     1  UNL1       -0.4486
      8 C          -2.1300    1.1259   -0.1584 C.ar    1  UNL1        0.1706
      9 C          -1.1657    2.1247   -0.2506 C.ar    1  UNL1       -0.0151
     10 C           0.1880    1.7786   -0.3114 C.ar    1  UNL1       -0.0503
     11 C           0.5977    0.4326   -0.2818 C.ar    1  UNL1       -0.0141
     12 C           2.0239    0.0729   -0.3480 C.ar    1  UNL1       -0.0156
     13 C           2.4944   -0.8590   -1.2798 C.ar    1  UNL1       -0.0519
     14 C           3.8514   -1.1904   -1.3333 C.ar    1  UNL1       -0.0337
     15 C           4.7698   -0.6112   -0.4707 C.ar    1  UNL1        0.0892
     16 N           6.0704   -0.9561   -0.5528 N.ar    1  UNL1       -0.2519
     17 C           6.9064   -0.3525    0.3188 C.ar    1  UNL1        0.0464
     18 C           6.4637    0.5684    1.2454 C.ar    1  UNL1        0.0464
     19 N           5.1653    0.9268    1.3415 N.ar    1  UNL1       -0.2519
     20 C           4.3140    0.3342    0.4799 C.ar    1  UNL1        0.0897
     21 C           2.9610    0.6545    0.5221 C.ar    1  UNL1       -0.0265
     22 C          -0.3948   -0.5585   -0.1880 C.ar    1  UNL1       -0.0079
     23 C          -1.7459   -0.2116   -0.1268 C.ar    1  UNL1        0.1712
     24 O          -2.6580   -1.2332   -0.0345 O.3     1  UNL1       -0.4486
     25 H          -7.7269    0.0998    0.1950 H       1  UNL1        0.0619
     26 H          -7.0434   -2.2869    0.2541 H       1  UNL1        0.0619
     27 H          -4.6367   -2.8936    0.1443 H       1  UNL1        0.0655
     28 H          -6.0041    1.8820    0.0262 H       1  UNL1        0.0655
     29 H          -1.4628    3.1693   -0.2776 H       1  UNL1        0.0656
     30 H           0.9266    2.5744   -0.3941 H       1  UNL1        0.0625
     31 H           1.8110   -1.3296   -1.9845 H       1  UNL1        0.0624
     32 H           4.1998   -1.9143   -2.0660 H       1  UNL1        0.0640
     33 H           7.9509   -0.6333    0.2498 H       1  UNL1        0.0845
     34 H           7.1430    1.0473    1.9409 H       1  UNL1        0.0845
     35 H           2.6335    1.3745    1.2700 H       1  UNL1        0.0645
     36 H          -0.1206   -1.6103   -0.1492 H       1  UNL1        0.0662
@<TRIPOS>BOND
     1     1     2   ar
     2     2     3   ar
     3     3     4   ar
     4     4     5   ar
     5     5     6   ar
     6     5     7    1
     7     7     8    1
     8     8     9   ar
     9     9    10   ar
    10    10    11   ar
    11    11    12    1
    12    12    13   ar
    13    13    14   ar
    14    14    15   ar
    15    15    16   ar
    16    16    17   ar
    17    17    18   ar
    18    18    19   ar
    19    19    20   ar
    20    20    21   ar
    21    11    22   ar
    22    22    23   ar
    23    23    24    1
    24     6     1   ar
    25    23     8   ar
    26    24     4    1
    27    21    12   ar
    28    20    15   ar
    29     1    25    1
    30     2    26    1
    31     3    27    1
    32     6    28    1
    33     9    29    1
    34    10    30    1
    35    13    31    1
    36    14    32    1
    37    17    33    1
    38    18    34    1
    39    21    35    1
    40    22    36    1
