@<TRIPOS>MOLECULE
*****
 36 40 0 0 0
SMALL
GASTEIGER

@<TRIPOS>ATOM
      1 C          -6.6366    0.4789   -0.1784 C.ar    1  UNL1       -0.0581
      2 C          -6.1080    1.4750   -1.0023 C.ar    1  UNL1       -0.0581
      3 C          -4.7257    1.5940   -1.1580 C.ar    1  UNL1       -0.0156
      4 C          -3.8765    0.7146   -0.4879 C.ar    1  UNL1        0.1706
      5 C          -4.4042   -0.2799    0.3346 C.ar    1  UNL1        0.1706
      6 C          -5.7842   -0.4006    0.4916 C.ar    1  UNL1       -0.0156
      7 O          -3.6073   -1.1673    1.0132 O.3     1  UNL1       -0.4486
      8 C          -2.2576   -1.0092    0.8278 C.ar    1  UNL1        0.1706
      9 C          -1.4072   -1.8852    1.4948 C.ar    1  UNL1       -0.0151
     10 C          -0.0226   -1.7641    1.3371 C.ar    1  UNL1       -0.0503
     11 C           0.5322   -0.7676    0.5122 C.ar    1  UNL1       -0.0127
     12 C           1.9879   -0.6429    0.3478 C.ar    1  UNL1        0.0024
     13 C           2.7909   -1.7322    0.0226 C.ar    1  UNL1        0.0361
     14 N           4.1338   -1.6784   -0.1383 N.ar    1  UNL1       -0.2528
     15 C           4.7258   -0.4795    0.0256 C.ar    1  UNL1        0.0892
     16 C           6.0982   -0.3613   -0.1278 C.ar    1  UNL1       -0.0328
     17 C           6.7342    0.8669    0.0365 C.ar    1  UNL1       -0.0415
     18 C           5.9553    1.9610    0.3566 C.ar    1  UNL1        0.0284
     19 N           4.6169    1.9004    0.5172 N.ar    1  UNL1       -0.2534
     20 C           4.0235    0.6991    0.3526 C.ar    1  UNL1        0.0897
     21 C           2.6496    0.5824    0.5078 C.ar    1  UNL1       -0.0251
     22 C          -0.3477    0.1067   -0.1499 C.ar    1  UNL1       -0.0079
     23 C          -1.7298   -0.0161    0.0080 C.ar    1  UNL1        0.1712
     24 O          -2.5258    0.8712   -0.6724 O.3     1  UNL1       -0.4486
     25 H          -7.7134    0.3879   -0.0584 H       1  UNL1        0.0619
     26 H          -6.7733    2.1591   -1.5233 H       1  UNL1        0.0619
     27 H          -4.3131    2.3684   -1.7984 H       1  UNL1        0.0655
     28 H          -6.1940   -1.1758    1.1328 H       1  UNL1        0.0655
     29 H          -1.8171   -2.6581    2.1392 H       1  UNL1        0.0656
     30 H           0.6235   -2.4515    1.8812 H       1  UNL1        0.0625
     31 H           2.3627   -2.7198   -0.1351 H       1  UNL1        0.0836
     32 H           6.6800   -1.2437   -0.3801 H       1  UNL1        0.0640
     33 H           7.8074    0.9614   -0.0831 H       1  UNL1        0.0633
     34 H           6.3964    2.9439    0.4971 H       1  UNL1        0.0830
     35 H           2.0885    1.4762    0.7726 H       1  UNL1        0.0646
     36 H           0.0371    0.8859   -0.8046 H       1  UNL1        0.0662
@<TRIPOS>BOND
     1     1     2   ar
     2     2     3   ar
     3     3     4   ar
     4     4     5   ar
     5     5     6   ar
     6     5     7    1
     7     7     8    1
     8     8     9   ar
     9     9    10   ar
    10    10    11   ar
    11    11    12    1
    12    12    13   ar
    13    13    14   ar
    14    14    15   ar
    15    15    16   ar
    16    16    17   ar
    17    17    18   ar
    18    18    19   ar
    19    19    20   ar
    20    20    21   ar
    21    11    22   ar
    22    22    23   ar
    23    23    24    1
    24     6     1   ar
    25    23     8   ar
    26    24     4    1
    27    21    12   ar
    28    20    15   ar
    29     1    25    1
    30     2    26    1
    31     3    27    1
    32     6    28    1
    33     9    29    1
    34    10    30    1
    35    13    31    1
    36    16    32    1
    37    17    33    1
    38    18    34    1
    39    21    35    1
    40    22    36    1
