@<TRIPOS>MOLECULE
*****
 36 40 0 0 0
SMALL
GASTEIGER

@<TRIPOS>ATOM
      1 C          -6.6040    0.1839   -0.1683 C.ar    1  UNL1       -0.0581
      2 C          -6.1376    1.4318   -0.5878 C.ar    1  UNL1       -0.0581
      3 C          -4.7657    1.6651   -0.6990 C.ar    1  UNL1       -0.0156
      4 C          -3.8643    0.6475   -0.3897 C.ar    1  UNL1        0.1706
      5 C          -4.3299   -0.5983    0.0289 C.ar    1  UNL1        0.1706
      6 C          -5.6994   -0.8336    0.1408 C.ar    1  UNL1       -0.0156
      7 O          -3.4803   -1.6291    0.3432 O.3     1  UNL1       -0.4486
      8 C          -2.1433   -1.3512    0.2160 C.ar    1  UNL1        0.1706
      9 C          -1.2410   -2.3656    0.5204 C.ar    1  UNL1       -0.0151
     10 C           0.1331   -2.1301    0.4064 C.ar    1  UNL1       -0.0503
     11 C           0.6253   -0.8797   -0.0123 C.ar    1  UNL1       -0.0127
     12 C           2.0693   -0.6347   -0.1284 C.ar    1  UNL1        0.0010
     13 C           2.9123   -1.4873   -0.8321 C.ar    1  UNL1        0.0377
     14 N           4.2505   -1.3210   -0.9721 N.ar    1  UNL1       -0.2351
     15 C           4.8312   -0.2642   -0.4044 C.ar    1  UNL1        0.1597
     16 N           6.1490   -0.1116   -0.5495 N.ar    1  UNL1       -0.2357
     17 C           6.7517    0.9542    0.0212 C.ar    1  UNL1        0.0300
     18 C           6.0868    1.9131    0.7573 C.ar    1  UNL1       -0.0429
     19 C           4.7178    1.7648    0.9148 C.ar    1  UNL1       -0.0496
     20 C           4.0710    0.6661    0.3302 C.ar    1  UNL1        0.0198
     21 C           2.6858    0.4695    0.4614 C.ar    1  UNL1       -0.0419
     22 C          -0.3061    0.1294   -0.3141 C.ar    1  UNL1       -0.0079
     23 C          -1.6775   -0.1076   -0.2003 C.ar    1  UNL1        0.1712
     24 O          -2.5260    0.9246   -0.5141 O.3     1  UNL1       -0.4486
     25 H          -7.6728    0.0040   -0.0826 H       1  UNL1        0.0619
     26 H          -6.8438    2.2227   -0.8286 H       1  UNL1        0.0619
     27 H          -4.4019    2.6350   -1.0258 H       1  UNL1        0.0655
     28 H          -6.0608   -1.8047    0.4667 H       1  UNL1        0.0655
     29 H          -1.6024   -3.3364    0.8486 H       1  UNL1        0.0656
     30 H           0.8207   -2.9347    0.6631 H       1  UNL1        0.0625
     31 H           2.5243   -2.3684   -1.3390 H       1  UNL1        0.0836
     32 H           7.8249    1.0135   -0.1387 H       1  UNL1        0.0830
     33 H           6.6197    2.7496    1.1947 H       1  UNL1        0.0633
     34 H           4.1606    2.5002    1.4890 H       1  UNL1        0.0625
     35 H           2.0928    1.1763    1.0380 H       1  UNL1        0.0631
     36 H           0.0298    1.1067   -0.6540 H       1  UNL1        0.0662
@<TRIPOS>BOND
     1     1     2   ar
     2     2     3   ar
     3     3     4   ar
     4     4     5   ar
     5     5     6   ar
     6     5     7    1
     7     7     8    1
     8     8     9   ar
     9     9    10   ar
    10    10    11   ar
    11    11    12    1
    12    12    13   ar
    13    13    14   ar
    14    14    15   ar
    15    15    16   ar
    16    16    17   ar
    17    17    18   ar
    18    18    19   ar
    19    19    20   ar
    20    20    21   ar
    21    11    22   ar
    22    22    23   ar
    23    23    24    1
    24     6     1   ar
    25    23     8   ar
    26    24     4    1
    27    21    12   ar
    28    20    15   ar
    29     1    25    1
    30     2    26    1
    31     3    27    1
    32     6    28    1
    33     9    29    1
    34    10    30    1
    35    13    31    1
    36    17    32    1
    37    18    33    1
    38    19    34    1
    39    21    35    1
    40    22    36    1
