@<TRIPOS>MOLECULE
*****
 34 38 0 0 0
SMALL
GASTEIGER

@<TRIPOS>ATOM
      1 C          -6.4667   -0.2266    0.5531 C.ar    1  UNL1       -0.0581
      2 C          -6.2512   -0.0679   -0.8177 C.ar    1  UNL1       -0.0581
      3 C          -4.9502    0.0235   -1.3159 C.ar    1  UNL1       -0.0156
      4 C          -3.8683   -0.0443   -0.4392 C.ar    1  UNL1        0.1706
      5 C          -4.0835   -0.2027    0.9292 C.ar    1  UNL1        0.1706
      6 C          -5.3816   -0.2942    1.4289 C.ar    1  UNL1       -0.0156
      7 O          -3.0495   -0.2744    1.8285 O.3     1  UNL1       -0.4486
      8 C          -1.7926   -0.1797    1.2901 C.ar    1  UNL1        0.1706
      9 C          -0.7098   -0.2463    2.1558 C.ar    1  UNL1       -0.0150
     10 C           0.5913   -0.1536    1.6468 C.ar    1  UNL1       -0.0488
     11 C           0.8495    0.0073    0.2664 C.ar    1  UNL1        0.0056
     12 C           2.2447    0.1013   -0.2315 C.ar    1  UNL1        0.0917
     13 C           2.6027    0.2597   -1.5639 C.ar    1  UNL1        0.0561
     14 N           3.8856    0.3428   -1.9922 N.ar    1  UNL1       -0.2310
     15 C           4.8389    0.2652   -1.0595 C.ar    1  UNL1        0.1977
     16 N           6.1182    0.3442   -1.4519 N.ar    1  UNL1       -0.2316
     17 C           7.0578    0.2628   -0.4886 C.ar    1  UNL1        0.0482
     18 C           6.7302    0.1058    0.8396 C.ar    1  UNL1        0.0482
     19 N           5.4504    0.0240    1.2563 N.ar    1  UNL1       -0.2316
     20 C           4.4986    0.1025    0.3157 C.ar    1  UNL1        0.1983
     21 N           3.2202    0.0235    0.7079 N.ar    1  UNL1       -0.2232
     22 C          -0.2737    0.0708   -0.5816 C.ar    1  UNL1       -0.0064
     23 C          -1.5751   -0.0217   -0.0737 C.ar    1  UNL1        0.1712
     24 O          -2.6086    0.0502   -0.9755 O.3     1  UNL1       -0.4486
     25 H          -7.4806   -0.2976    0.9392 H       1  UNL1        0.0619
     26 H          -7.0977   -0.0154   -1.4980 H       1  UNL1        0.0619
     27 H          -4.7818    0.1470   -2.3818 H       1  UNL1        0.0655
     28 H          -5.5476   -0.4176    2.4953 H       1  UNL1        0.0655
     29 H          -0.8677   -0.3696    3.2236 H       1  UNL1        0.0656
     30 H           1.4200   -0.2096    2.3539 H       1  UNL1        0.0625
     31 H           1.8730    0.3285   -2.3623 H       1  UNL1        0.0852
     32 H           8.0882    0.3282   -0.8197 H       1  UNL1        0.0846
     33 H           7.4888    0.0407    1.6117 H       1  UNL1        0.0846
     34 H          -0.1718    0.1933   -1.6558 H       1  UNL1        0.0662
@<TRIPOS>BOND
     1     1     2   ar
     2     2     3   ar
     3     3     4   ar
     4     4     5   ar
     5     5     6   ar
     6     5     7    1
     7     7     8    1
     8     8     9   ar
     9     9    10   ar
    10    10    11   ar
    11    11    12    1
    12    12    13   ar
    13    13    14   ar
    14    14    15   ar
    15    15    16   ar
    16    16    17   ar
    17    17    18   ar
    18    18    19   ar
    19    19    20   ar
    20    20    21   ar
    21    11    22   ar
    22    22    23   ar
    23    23    24    1
    24     6     1   ar
    25    23     8   ar
    26    24     4    1
    27    21    12   ar
    28    20    15   ar
    29     1    25    1
    30     2    26    1
    31     3    27    1
    32     6    28    1
    33     9    29    1
    34    10    30    1
    35    13    31    1
    36    17    32    1
    37    18    33    1
    38    22    34    1
