@<TRIPOS>MOLECULE
*****
 49 56 0 0 0
SMALL
GASTEIGER

@<TRIPOS>ATOM
      1 SI         -1.8729    4.1441    1.5924 Si      1  UNL1        0.0000
      2 C          -3.2597    3.0322    1.0473 C.2     1  UNL1        0.0000
      3 C          -2.8067    1.8777    0.5114 C.ar    1  UNL1        0.0000
      4 C          -3.6803    0.7643    0.0556 C.ar    1  UNL1        0.0000
      5 C          -5.1064    0.9679   -0.1320 C.ar    1  UNL1        0.0000
      6 C          -5.9938    0.0197   -0.6844 C.ar    1  UNL1        0.0000
      7 C          -5.2897   -1.1012   -1.0822 C.ar    1  UNL1        0.0000
      8 C          -5.8044   -2.1614   -1.7775 C.ar    1  UNL1        0.0000
      9 O          -4.7937   -3.0190   -2.1006 O.2     1  UNL1        0.0000
     10 C          -3.6345   -2.4938   -1.5996 C.ar    1  UNL1        0.0000
     11 C          -3.8912   -1.3390   -0.8993 C.ar    1  UNL1        0.0000
     12 C          -3.0013   -0.4656   -0.2482 C.ar    1  UNL1        0.0000
     13 C          -1.5634   -0.6379   -0.0465 C.ar    1  UNL1        0.0000
     14 C          -0.8582   -1.8332    0.1275 C.ar    1  UNL1        0.0000
     15 C          -1.3419   -3.0801    0.4414 C.ar    1  UNL1        0.0000
     16 O          -0.3155   -3.9756    0.5360 O.2     1  UNL1        0.0000
     17 C           0.8446   -3.2876    0.3318 C.ar    1  UNL1        0.0000
     18 C           0.5630   -1.9615    0.1237 C.ar    1  UNL1        0.0000
     19 C           1.4773   -0.9087   -0.0754 C.ar    1  UNL1        0.0000
     20 C           2.8805   -1.0367   -0.1867 C.ar    1  UNL1        0.0000
     21 C           3.6348    0.1044   -0.4064 C.ar    1  UNL1        0.0000
     22 N           3.0543    1.3164   -0.5214 N.ar    1  UNL1        0.0000
     23 C           1.6990    1.4009   -0.4012 C.ar    1  UNL1        0.0000
     24 C           0.8121    0.3487   -0.1351 C.ar    1  UNL1        0.0000
     25 C          -0.6519    0.4779    0.0327 C.ar    1  UNL1        0.0000
     26 C          -1.3194    1.7587    0.4616 C.ar    1  UNL1        0.0000
     27 C          -0.6928    2.8052    1.0461 C.2     1  UNL1        0.0000
     28 C           5.0906    0.0542   -0.5331 C.2     1  UNL1        0.0000
     29 C           5.8793   -0.9937   -0.8645 C.2     1  UNL1        0.0000
     30 C           7.3091   -0.7255   -0.9040 C.2     1  UNL1        0.0000
     31 C           7.6641    0.5373   -0.6108 C.2     1  UNL1        0.0000
     32 SI          6.1505    1.5989   -0.2342 Si      1  UNL1        0.0000
     33 H          -1.7633    5.3669    0.7620 H       1  UNL1        0.0000
     34 H          -1.8533    4.3530    3.0596 H       1  UNL1        0.0000
     35 H          -4.2778    3.3376    1.2202 H       1  UNL1        0.0000
     36 H          -5.5427    1.9298    0.1345 H       1  UNL1        0.0000
     37 H          -7.0476    0.2028   -0.8374 H       1  UNL1        0.0000
     38 H          -6.7841   -2.4346   -2.1428 H       1  UNL1        0.0000
     39 H          -2.7479   -3.0575   -1.8516 H       1  UNL1        0.0000
     40 H          -2.3218   -3.4935    0.6364 H       1  UNL1        0.0000
     41 H           1.7473   -3.8783    0.3961 H       1  UNL1        0.0000
     42 H           3.3522   -2.0081   -0.1027 H       1  UNL1        0.0000
     43 H           1.3322    2.4067   -0.5881 H       1  UNL1        0.0000
     44 H           0.3498    2.9270    1.2843 H       1  UNL1        0.0000
     45 H           5.5188   -1.9864   -1.1036 H       1  UNL1        0.0000
     46 H           8.0160   -1.5063   -1.1566 H       1  UNL1        0.0000
     47 H           8.6608    0.9480   -0.5835 H       1  UNL1        0.0000
     48 H           6.0079    2.6626   -1.2614 H       1  UNL1        0.0000
     49 H           6.1720    2.0420    1.1842 H       1  UNL1        0.0000
@<TRIPOS>BOND
     1     1     2    1
     2     2     3    2
     3     3     4   ar
     4     4     5   ar
     5     5     6   ar
     6     6     7   ar
     7     7     8   ar
     8     8     9   ar
     9     9    10   ar
    10    10    11   ar
    11    11    12   ar
    12    12    13   ar
    13    13    14   ar
    14    14    15   ar
    15    15    16   ar
    16    16    17   ar
    17    17    18   ar
    18    18    19   ar
    19    19    20   ar
    20    20    21   ar
    21    21    22   ar
    22    22    23   ar
    23    23    24   ar
    24    24    25   ar
    25    25    26   ar
    26    26    27    2
    27    21    28    1
    28    28    29    2
    29    29    30    1
    30    30    31    2
    31    31    32    1
    32    27     1    1
    33    32    28    1
    34    26     3   ar
    35    12     4   ar
    36    25    13   ar
    37    11     7   ar
    38    18    14   ar
    39    24    19   ar
    40     1    33    1
    41     1    34    1
    42     2    35    1
    43     5    36    1
    44     6    37    1
    45     8    38    1
    46    10    39    1
    47    15    40    1
    48    17    41    1
    49    20    42    1
    50    23    43    1
    51    27    44    1
    52    29    45    1
    53    30    46    1
    54    31    47    1
    55    32    48    1
    56    32    49    1
