@<TRIPOS>MOLECULE
*****
 28 31 0 0 0
SMALL
GASTEIGER

@<TRIPOS>ATOM
      1 C           4.9763    0.2747   -0.0828 C.ar    1  UNL1       -0.0581
      2 C           4.7346   -1.0918    0.0751 C.ar    1  UNL1       -0.0581
      3 C           3.4241   -1.5660    0.1576 C.ar    1  UNL1       -0.0156
      4 C           2.3589   -0.6698    0.0817 C.ar    1  UNL1        0.1706
      5 C           2.6001    0.6944   -0.0761 C.ar    1  UNL1        0.1706
      6 C           3.9079    1.1702   -0.1587 C.ar    1  UNL1       -0.0156
      7 O           1.5836    1.6127   -0.1560 O.3     1  UNL1       -0.4486
      8 C           0.3153    1.0980   -0.0704 C.ar    1  UNL1        0.1706
      9 C          -0.7500    1.9900   -0.1489 C.ar    1  UNL1       -0.0151
     10 C          -2.0627    1.5138   -0.0669 C.ar    1  UNL1       -0.0502
     11 C          -2.3205    0.1429    0.0970 C.ar    1  UNL1       -0.0096
     12 C          -3.6891   -0.3341    0.1773 C.ar    1  UNL1        0.0409
     13 C          -4.8949    0.1979   -0.3345 C.ar    1  UNL1        0.0777
     14 N          -5.9565   -0.5500   -0.0233 N.ar    1  UNL1       -0.0862
     15 O          -5.4510   -1.6052    0.7177 O.2     1  UNL1       -0.3623
     16 C          -4.1059   -1.4688    0.8339 C.ar    1  UNL1        0.1319
     17 C          -1.2358   -0.7436    0.1722 C.ar    1  UNL1       -0.0078
     18 C           0.0731   -0.2638    0.0889 C.ar    1  UNL1        0.1712
     19 O           1.0893   -1.1833    0.1678 O.3     1  UNL1       -0.4486
     20 H           5.9976    0.6419   -0.1469 H       1  UNL1        0.0619
     21 H           5.5681   -1.7876    0.1338 H       1  UNL1        0.0619
     22 H           3.2353   -2.6286    0.2802 H       1  UNL1        0.0655
     23 H           4.0947    2.2332   -0.2816 H       1  UNL1        0.0655
     24 H          -0.5620    3.0533   -0.2711 H       1  UNL1        0.0656
     25 H          -2.8766    2.2337   -0.1200 H       1  UNL1        0.0625
     26 H          -5.0491    1.0910   -0.9234 H       1  UNL1        0.0870
     27 H          -3.6156   -2.2411    1.4078 H       1  UNL1        0.1064
     28 H          -1.3892   -1.8139    0.2819 H       1  UNL1        0.0662
@<TRIPOS>BOND
     1     1     2   ar
     2     2     3   ar
     3     3     4   ar
     4     4     5   ar
     5     5     6   ar
     6     5     7    1
     7     7     8    1
     8     8     9   ar
     9     9    10   ar
    10    10    11   ar
    11    11    12    1
    12    12    13   ar
    13    13    14   ar
    14    14    15   ar
    15    15    16   ar
    16    11    17   ar
    17    17    18   ar
    18    18    19    1
    19     6     1   ar
    20    18     8   ar
    21    19     4    1
    22    16    12   ar
    23     1    20    1
    24     2    21    1
    25     3    22    1
    26     6    23    1
    27     9    24    1
    28    10    25    1
    29    13    26    1
    30    16    27    1
    31    17    28    1
