@<TRIPOS>MOLECULE
*****
 28 31 0 0 0
SMALL
GASTEIGER

@<TRIPOS>ATOM
      1 C          -5.0359   -0.2452    0.6116 C.ar    1  UNL1       -0.0581
      2 C          -4.8263    0.9077   -0.1483 C.ar    1  UNL1       -0.0581
      3 C          -3.5278    1.3088   -0.4679 C.ar    1  UNL1       -0.0156
      4 C          -2.4425    0.5538   -0.0255 C.ar    1  UNL1        0.1706
      5 C          -2.6518   -0.5971    0.7330 C.ar    1  UNL1        0.1706
      6 C          -3.9475   -0.9996    1.0535 C.ar    1  UNL1       -0.0156
      7 O          -1.6149   -1.3709    1.1899 O.3     1  UNL1       -0.4486
      8 C          -0.3596   -0.9358    0.8501 C.ar    1  UNL1        0.1706
      9 C           0.7253   -1.6863    1.2896 C.ar    1  UNL1       -0.0150
     10 C           2.0239   -1.2798    0.9664 C.ar    1  UNL1       -0.0488
     11 C           2.2564   -0.1218    0.2022 C.ar    1  UNL1        0.0046
     12 C           3.6349    0.2624   -0.1100 C.ar    1  UNL1        0.0782
     13 C           4.0048    1.3721   -0.8490 C.ar    1  UNL1        0.0031
     14 S           5.7149    1.4607   -0.9838 S.2     1  UNL1       -0.0833
     15 C           5.8386    0.0275   -0.0566 C.ar    1  UNL1        0.0654
     16 N           4.7048   -0.5042    0.3406 N.ar    1  UNL1       -0.2474
     17 C           1.1485    0.6217   -0.2318 C.ar    1  UNL1       -0.0065
     18 C          -0.1484    0.2132    0.0926 C.ar    1  UNL1        0.1712
     19 O          -1.1858    0.9881   -0.3649 O.3     1  UNL1       -0.4486
     20 H          -6.0478   -0.5561    0.8596 H       1  UNL1        0.0619
     21 H          -5.6752    1.4938   -0.4915 H       1  UNL1        0.0619
     22 H          -3.3636    2.2052   -1.0589 H       1  UNL1        0.0655
     23 H          -4.1088   -1.8966    1.6446 H       1  UNL1        0.0655
     24 H           0.5677   -2.5838    1.8809 H       1  UNL1        0.0656
     25 H           2.8625   -1.8790    1.3187 H       1  UNL1        0.0625
     26 H           3.3907    2.1284   -1.3135 H       1  UNL1        0.0715
     27 H           6.7979   -0.4108    0.1854 H       1  UNL1        0.0907
     28 H           1.2648    1.5235   -0.8240 H       1  UNL1        0.0662
@<TRIPOS>BOND
     1     1     2   ar
     2     2     3   ar
     3     3     4   ar
     4     4     5   ar
     5     5     6   ar
     6     5     7    1
     7     7     8    1
     8     8     9   ar
     9     9    10   ar
    10    10    11   ar
    11    11    12    1
    12    12    13   ar
    13    13    14   ar
    14    14    15   ar
    15    15    16   ar
    16    11    17   ar
    17    17    18   ar
    18    18    19    1
    19     6     1   ar
    20    18     8   ar
    21    19     4    1
    22    16    12   ar
    23     1    20    1
    24     2    21    1
    25     3    22    1
    26     6    23    1
    27     9    24    1
    28    10    25    1
    29    13    26    1
    30    15    27    1
    31    17    28    1
