@<TRIPOS>MOLECULE
*****
 34 38 0 0 0
SMALL
GASTEIGER

@<TRIPOS>ATOM
      1 C           6.5154    0.3589    0.0742 C.ar    1  UNL1       -0.0581
      2 C           6.0791    1.5171    0.7214 C.ar    1  UNL1       -0.0581
      3 C           4.7130    1.7618    0.8730 C.ar    1  UNL1       -0.0156
      4 C           3.7874    0.8456    0.3758 C.ar    1  UNL1        0.1706
      5 C           4.2228   -0.3106   -0.2702 C.ar    1  UNL1        0.1706
      6 C           5.5864   -0.5572   -0.4228 C.ar    1  UNL1       -0.0156
      7 O           3.3486   -1.2400   -0.7753 O.3     1  UNL1       -0.4486
      8 C           2.0182   -0.9545   -0.6015 C.ar    1  UNL1        0.1707
      9 C           1.0924   -1.8684   -1.0974 C.ar    1  UNL1       -0.0149
     10 C          -0.2761   -1.6220   -0.9448 C.ar    1  UNL1       -0.0458
     11 C          -0.7309   -0.4611   -0.2959 C.ar    1  UNL1        0.0406
     12 C          -2.1543   -0.1790   -0.1229 C.ar    1  UNL1        0.2285
     13 N          -2.7284    0.8596    0.4596 N.ar    1  UNL1       -0.2089
     14 C          -4.0701    0.6048    0.3339 C.ar    1  UNL1        0.1099
     15 C          -5.1908    1.3339    0.7512 C.ar    1  UNL1       -0.0326
     16 C          -6.4623    0.8079    0.4745 C.ar    1  UNL1       -0.0595
     17 C          -6.6110   -0.4114   -0.1997 C.ar    1  UNL1       -0.0582
     18 C          -5.4997   -1.1512   -0.6228 C.ar    1  UNL1       -0.0171
     19 C          -4.2605   -0.5957   -0.3293 C.ar    1  UNL1        0.1557
     20 O          -3.0323   -1.1074   -0.6273 O.2     1  UNL1       -0.4353
     21 C           0.2179    0.4483    0.1972 C.ar    1  UNL1       -0.0034
     22 C           1.5825    0.2003    0.0438 C.ar    1  UNL1        0.1713
     23 O           2.4563    1.1301    0.5491 O.3     1  UNL1       -0.4486
     24 H           7.5796    0.1701   -0.0429 H       1  UNL1        0.0619
     25 H           6.8038    2.2295    1.1079 H       1  UNL1        0.0619
     26 H           4.3720    2.6621    1.3761 H       1  UNL1        0.0655
     27 H           5.9243   -1.4583   -0.9264 H       1  UNL1        0.0655
     28 H           1.4314   -2.7695   -1.6009 H       1  UNL1        0.0656
     29 H          -0.9849   -2.3479   -1.3390 H       1  UNL1        0.0626
     30 H          -5.0717    2.2770    1.2726 H       1  UNL1        0.0640
     31 H          -7.3466    1.3585    0.7900 H       1  UNL1        0.0618
     32 H          -7.6112   -0.7923   -0.3993 H       1  UNL1        0.0619
     33 H          -5.5944   -2.0948   -1.1448 H       1  UNL1        0.0655
     34 H          -0.1060    1.3556    0.7040 H       1  UNL1        0.0663
@<TRIPOS>BOND
     1     1     2   ar
     2     2     3   ar
     3     3     4   ar
     4     4     5   ar
     5     5     6   ar
     6     5     7    1
     7     7     8    1
     8     8     9   ar
     9     9    10   ar
    10    10    11   ar
    11    11    12    1
    12    12    13   ar
    13    13    14   ar
    14    14    15   ar
    15    15    16   ar
    16    16    17   ar
    17    17    18   ar
    18    18    19   ar
    19    19    20   ar
    20    11    21   ar
    21    21    22   ar
    22    22    23    1
    23     6     1   ar
    24    22     8   ar
    25    23     4    1
    26    20    12   ar
    27    19    14   ar
    28     1    24    1
    29     2    25    1
    30     3    26    1
    31     6    27    1
    32     9    28    1
    33    10    29    1
    34    15    30    1
    35    16    31    1
    36    17    32    1
    37    18    33    1
    38    21    34    1
