@<TRIPOS>MOLECULE
*****
 27 30 0 0 0
SMALL
GASTEIGER

@<TRIPOS>ATOM
      1 C          -4.8033    0.7406    0.7566 C.ar    1  UNL1       -0.0581
      2 C          -4.7649   -0.0435   -0.3985 C.ar    1  UNL1       -0.0581
      3 C          -3.5398   -0.4704   -0.9142 C.ar    1  UNL1       -0.0156
      4 C          -2.3562   -0.1107   -0.2715 C.ar    1  UNL1        0.1706
      5 C          -2.3944    0.6720    0.8816 C.ar    1  UNL1        0.1706
      6 C          -3.6165    1.0995    1.3986 C.ar    1  UNL1       -0.0156
      7 O          -1.2558    1.0501    1.5475 O.3     1  UNL1       -0.4486
      8 C          -0.0779    0.6062    1.0022 C.ar    1  UNL1        0.1706
      9 C           1.1047    0.9648    1.6433 C.ar    1  UNL1       -0.0150
     10 C           2.3309    0.5363    1.1254 C.ar    1  UNL1       -0.0472
     11 C           2.3844   -0.2530   -0.0361 C.ar    1  UNL1        0.0261
     12 C           3.6718   -0.6928   -0.5650 C.ar    1  UNL1        0.2019
     13 N           4.8684   -0.3607    0.0383 N.ar    1  UNL1       -0.1942
     14 C           5.7434   -0.9434   -0.7405 C.ar    1  UNL1        0.2147
     15 O           5.1933   -1.6130   -1.7818 O.2     1  UNL1       -0.3411
     16 N           3.8139   -1.4485   -1.6684 N.ar    1  UNL1       -0.0564
     17 C           1.1833   -0.6058   -0.6704 C.ar    1  UNL1       -0.0049
     18 C          -0.0386   -0.1760   -0.1501 C.ar    1  UNL1        0.1713
     19 O          -1.1776   -0.5544   -0.8163 O.3     1  UNL1       -0.4486
     20 H          -5.7583    1.0721    1.1568 H       1  UNL1        0.0619
     21 H          -5.6900   -0.3221   -0.8972 H       1  UNL1        0.0619
     22 H          -3.5083   -1.0803   -1.8126 H       1  UNL1        0.0655
     23 H          -3.6449    1.7092    2.2970 H       1  UNL1        0.0655
     24 H           1.0758    1.5747    2.5420 H       1  UNL1        0.0656
     25 H           3.2484    0.8239    1.6366 H       1  UNL1        0.0626
     26 H           6.8197   -0.9592   -0.6627 H       1  UNL1        0.1283
     27 H           1.1884   -1.2156   -1.5711 H       1  UNL1        0.0663
@<TRIPOS>BOND
     1     1     2   ar
     2     2     3   ar
     3     3     4   ar
     4     4     5   ar
     5     5     6   ar
     6     5     7    1
     7     7     8    1
     8     8     9   ar
     9     9    10   ar
    10    10    11   ar
    11    11    12    1
    12    12    13   ar
    13    13    14   ar
    14    14    15   ar
    15    15    16   ar
    16    11    17   ar
    17    17    18   ar
    18    18    19    1
    19     6     1   ar
    20    18     8   ar
    21    19     4    1
    22    16    12   ar
    23     1    20    1
    24     2    21    1
    25     3    22    1
    26     6    23    1
    27     9    24    1
    28    10    25    1
    29    14    26    1
    30    17    27    1
