@<TRIPOS>MOLECULE
*****
 39 44 0 0 0
SMALL
GASTEIGER

@<TRIPOS>ATOM
      1 C          -4.0867    1.2922   -2.5462 C.ar    1  UNL1       -0.0582
      2 C          -2.7732    1.6301   -2.2170 C.ar    1  UNL1       -0.0610
      3 C          -2.0747    0.9291   -1.2226 C.ar    1  UNL1       -0.0504
      4 C          -2.7132   -0.1358   -0.5538 C.ar    1  UNL1        0.0285
      5 C          -4.0283   -0.4242   -0.9042 C.ar    1  UNL1        0.1363
      6 C          -4.7477    0.2514   -1.8886 C.ar    1  UNL1       -0.0187
      7 O          -4.5122   -1.4447   -0.1495 O.2     1  UNL1       -0.4548
      8 C          -3.5179   -1.8217    0.6979 C.ar    1  UNL1        0.1369
      9 C          -3.6396   -2.8268    1.6560 C.ar    1  UNL1       -0.0187
     10 C          -2.5203   -3.0783    2.4485 C.ar    1  UNL1       -0.0576
     11 C          -1.3372   -2.3627    2.2583 C.ar    1  UNL1       -0.0518
     12 C          -1.2219   -1.3638    1.2652 C.ar    1  UNL1        0.0117
     13 C           0.0439   -0.6667    1.0468 C.ar    1  UNL1        0.0736
     14 C           0.7671   -0.8318   -0.1347 C.ar    1  UNL1       -0.0117
     15 C           1.9663   -0.1256   -0.2169 C.ar    1  UNL1        0.0510
     16 N           2.8980   -0.0600   -1.2253 N.ar    1  UNL1       -0.3540
     17 C           3.9352    0.7716   -0.8755 C.ar    1  UNL1        0.0504
     18 C           5.0827    1.1337   -1.5780 C.ar    1  UNL1       -0.0196
     19 C           5.9277    2.0059   -0.9088 C.ar    1  UNL1        0.0295
     20 N           5.7085    2.4999    0.3293 N.ar    1  UNL1       -0.2625
     21 C           4.5846    2.1320    0.9931 C.ar    1  UNL1        0.0373
     22 C           3.6643    1.2547    0.4051 C.ar    1  UNL1        0.0269
     23 C           2.4202    0.6854    0.8213 C.ar    1  UNL1        0.0270
     24 C           1.6393    0.7793    1.9785 C.ar    1  UNL1        0.0380
     25 N           0.4694    0.1005    2.0802 N.ar    1  UNL1       -0.2542
     26 C          -2.3648   -1.0701    0.4786 C.ar    1  UNL1        0.0371
     27 H          -4.6091    1.8533   -3.3182 H       1  UNL1        0.0619
     28 H          -2.2848    2.4550   -2.7317 H       1  UNL1        0.0618
     29 H          -1.0619    1.2259   -0.9679 H       1  UNL1        0.0625
     30 H          -5.7712   -0.0172   -2.1206 H       1  UNL1        0.0654
     31 H          -4.5672   -3.3721    1.7826 H       1  UNL1        0.0654
     32 H          -2.5690   -3.8419    3.2216 H       1  UNL1        0.0619
     33 H          -0.4769   -2.5825    2.8902 H       1  UNL1        0.0624
     34 H           0.4139   -1.4685   -0.9371 H       1  UNL1        0.0660
     35 H           2.8295   -0.5543   -2.1037 H       1  UNL1        0.1659
     36 H           5.3072    0.7672   -2.5710 H       1  UNL1        0.0653
     37 H           6.8488    2.3456   -1.3762 H       1  UNL1        0.0830
     38 H           4.4530    2.5538    1.9830 H       1  UNL1        0.0836
     39 H           1.9180    1.3824    2.8353 H       1  UNL1        0.0836
@<TRIPOS>BOND
     1     1     2   ar
     2     2     3   ar
     3     3     4   ar
     4     4     5   ar
     5     5     6   ar
     6     5     7   ar
     7     7     8   ar
     8     8     9   ar
     9     9    10   ar
    10    10    11   ar
    11    11    12   ar
    12    12    13    1
    13    13    14   ar
    14    14    15   ar
    15    15    16   ar
    16    16    17   ar
    17    17    18   ar
    18    18    19   ar
    19    19    20   ar
    20    20    21   ar
    21    21    22   ar
    22    22    23   ar
    23    23    24   ar
    24    24    25   ar
    25    12    26   ar
    26     6     1   ar
    27    26     8   ar
    28    26     4   ar
    29    25    13   ar
    30    23    15   ar
    31    22    17   ar
    32     1    27    1
    33     2    28    1
    34     3    29    1
    35     6    30    1
    36     9    31    1
    37    10    32    1
    38    11    33    1
    39    14    34    1
    40    16    35    1
    41    18    36    1
    42    19    37    1
    43    21    38    1
    44    24    39    1
