@<TRIPOS>MOLECULE
*****
 34 38 0 0 0
SMALL
GASTEIGER

@<TRIPOS>ATOM
      1 C          -3.5123    2.7110   -0.2336 C.ar    1  UNL1       -0.0582
      2 C          -2.1350    2.8316   -0.0430 C.ar    1  UNL1       -0.0610
      3 C          -1.3172    1.6961    0.0557 C.ar    1  UNL1       -0.0504
      4 C          -1.9015    0.4167   -0.0463 C.ar    1  UNL1        0.0285
      5 C          -3.2804    0.3462   -0.2199 C.ar    1  UNL1        0.1363
      6 C          -4.1186    1.4551   -0.3234 C.ar    1  UNL1       -0.0187
      7 O          -3.6927   -0.9477   -0.2652 O.2     1  UNL1       -0.4548
      8 C          -2.5865   -1.7246   -0.1193 C.ar    1  UNL1        0.1369
      9 C          -2.5979   -3.1190   -0.0894 C.ar    1  UNL1       -0.0187
     10 C          -1.3662   -3.7573    0.0699 C.ar    1  UNL1       -0.0576
     11 C          -0.1862   -3.0199    0.1758 C.ar    1  UNL1       -0.0518
     12 C          -0.2034   -1.6146    0.1266 C.ar    1  UNL1        0.0096
     13 C           1.0337   -0.8560    0.1878 C.ar    1  UNL1        0.0482
     14 C           1.9786   -0.7533    1.1911 C.ar    1  UNL1       -0.0272
     15 C           3.0190    0.1046    0.7378 C.ar    1  UNL1        0.0183
     16 C           4.2068    0.5877    1.2993 C.ar    1  UNL1        0.0367
     17 N           5.0152    1.4169    0.5927 N.ar    1  UNL1       -0.2625
     18 C           4.6547    1.7653   -0.6625 C.ar    1  UNL1        0.0295
     19 C           3.5027    1.3411   -1.3081 C.ar    1  UNL1       -0.0196
     20 C           2.6899    0.4927   -0.5601 C.ar    1  UNL1        0.0498
     21 N           1.4961   -0.1127   -0.8747 N.ar    1  UNL1       -0.3540
     22 C          -1.4397   -0.9404   -0.0054 C.ar    1  UNL1        0.0370
     23 H          -4.1259    3.6067   -0.3037 H       1  UNL1        0.0619
     24 H          -1.6876    3.8203    0.0388 H       1  UNL1        0.0618
     25 H          -0.2517    1.8159    0.2270 H       1  UNL1        0.0625
     26 H          -5.1873    1.3413   -0.4594 H       1  UNL1        0.0654
     27 H          -3.5244   -3.6739   -0.1792 H       1  UNL1        0.0654
     28 H          -1.3266   -4.8440    0.1051 H       1  UNL1        0.0619
     29 H           0.7608   -3.5459    0.2840 H       1  UNL1        0.0624
     30 H           1.9204   -1.2356    2.1587 H       1  UNL1        0.0645
     31 H           4.5334    0.3328    2.3007 H       1  UNL1        0.0836
     32 H           5.3524    2.4301   -1.1659 H       1  UNL1        0.0830
     33 H           3.2625    1.6501   -2.3167 H       1  UNL1        0.0653
     34 H           1.0148   -0.0173   -1.7585 H       1  UNL1        0.1659
@<TRIPOS>BOND
     1     1     2   ar
     2     2     3   ar
     3     3     4   ar
     4     4     5   ar
     5     5     6   ar
     6     5     7   ar
     7     7     8   ar
     8     8     9   ar
     9     9    10   ar
    10    10    11   ar
    11    11    12   ar
    12    12    13    1
    13    13    14   ar
    14    14    15   ar
    15    15    16   ar
    16    16    17   ar
    17    17    18   ar
    18    18    19   ar
    19    19    20   ar
    20    20    21   ar
    21    12    22   ar
    22     6     1   ar
    23    22     8   ar
    24    22     4   ar
    25    21    13   ar
    26    20    15   ar
    27     1    23    1
    28     2    24    1
    29     3    25    1
    30     6    26    1
    31     9    27    1
    32    10    28    1
    33    11    29    1
    34    14    30    1
    35    16    31    1
    36    18    32    1
    37    19    33    1
    38    21    34    1
