@<TRIPOS>MOLECULE
*****
 39 43 0 0 0
SMALL
GASTEIGER

@<TRIPOS>ATOM
      1 C          -4.2906   -0.9720    2.3697 C.ar    1  UNL1       -0.0582
      2 C          -2.8968   -0.9526    2.4447 C.ar    1  UNL1       -0.0610
      3 C          -2.1194   -0.5683    1.3423 C.ar    1  UNL1       -0.0504
      4 C          -2.7640   -0.1972    0.1447 C.ar    1  UNL1        0.0285
      5 C          -4.1543   -0.2313    0.1162 C.ar    1  UNL1        0.1363
      6 C          -4.9536   -0.6087    1.1939 C.ar    1  UNL1       -0.0187
      7 O          -4.6180    0.1527   -1.1025 O.2     1  UNL1       -0.4548
      8 C          -3.5326    0.4379   -1.8708 C.ar    1  UNL1        0.1368
      9 C          -3.5920    0.8688   -3.1951 C.ar    1  UNL1       -0.0187
     10 C          -2.3746    1.1143   -3.8317 C.ar    1  UNL1       -0.0577
     11 C          -1.1650    0.9312   -3.1587 C.ar    1  UNL1       -0.0532
     12 C          -1.1257    0.4944   -1.8177 C.ar    1  UNL1       -0.0065
     13 C           0.1431    0.3031   -1.1210 C.ar    1  UNL1       -0.0171
     14 C           0.7118    1.3362   -0.3688 C.ar    1  UNL1       -0.0534
     15 C           1.9245    1.1455    0.3043 C.ar    1  UNL1       -0.0519
     16 C           2.6178   -0.0771    0.2445 C.ar    1  UNL1        0.0019
     17 C           3.8966   -0.2518    0.9614 C.ar    1  UNL1        0.0890
     18 C           4.9113   -1.1115    0.5374 C.ar    1  UNL1        0.0535
     19 N           6.0861   -1.2759    1.1995 N.ar    1  UNL1       -0.2596
     20 C           6.2207   -0.5342    2.3184 C.ar    1  UNL1        0.0457
     21 C           5.2329    0.3303    2.7521 C.ar    1  UNL1        0.0464
     22 N           4.0634    0.4911    2.0897 N.ar    1  UNL1       -0.2520
     23 C           2.0335   -1.1082   -0.5125 C.ar    1  UNL1       -0.0519
     24 C           0.8192   -0.9207   -1.1862 C.ar    1  UNL1       -0.0534
     25 C          -2.3529    0.2411   -1.1565 C.ar    1  UNL1        0.0356
     26 H          -4.8712   -1.2736    3.2389 H       1  UNL1        0.0619
     27 H          -2.4030   -1.2386    3.3712 H       1  UNL1        0.0618
     28 H          -1.0362   -0.5588    1.4216 H       1  UNL1        0.0625
     29 H          -6.0339   -0.6170    1.1169 H       1  UNL1        0.0654
     30 H          -4.5416    1.0045   -3.6988 H       1  UNL1        0.0654
     31 H          -2.3692    1.4530   -4.8655 H       1  UNL1        0.0619
     32 H          -0.2322    1.1324   -3.6838 H       1  UNL1        0.0624
     33 H           0.2094    2.2987   -0.2931 H       1  UNL1        0.0624
     34 H           2.3330    1.9717    0.8855 H       1  UNL1        0.0624
     35 H           4.8227   -1.6976   -0.3708 H       1  UNL1        0.0851
     36 H           7.1514   -0.6519    2.8611 H       1  UNL1        0.0845
     37 H           5.3535    0.9230    3.6516 H       1  UNL1        0.0845
     38 H           2.5012   -2.0883   -0.5763 H       1  UNL1        0.0624
     39 H           0.3949   -1.7459   -1.7559 H       1  UNL1        0.0624
@<TRIPOS>BOND
     1     1     2   ar
     2     2     3   ar
     3     3     4   ar
     4     4     5   ar
     5     5     6   ar
     6     5     7   ar
     7     7     8   ar
     8     8     9   ar
     9     9    10   ar
    10    10    11   ar
    11    11    12   ar
    12    12    13    1
    13    13    14   ar
    14    14    15   ar
    15    15    16   ar
    16    16    17    1
    17    17    18   ar
    18    18    19   ar
    19    19    20   ar
    20    20    21   ar
    21    21    22   ar
    22    16    23   ar
    23    23    24   ar
    24    12    25   ar
    25     6     1   ar
    26    25     8   ar
    27    25     4   ar
    28    24    13   ar
    29    22    17   ar
    30     1    26    1
    31     2    27    1
    32     3    28    1
    33     6    29    1
    34     9    30    1
    35    10    31    1
    36    11    32    1
    37    14    33    1
    38    15    34    1
    39    18    35    1
    40    20    36    1
    41    21    37    1
    42    23    38    1
    43    24    39    1
