@<TRIPOS>MOLECULE
*****
 40 45 0 0 0
SMALL
GASTEIGER

@<TRIPOS>ATOM
      1 C          -3.9288   -2.9603    1.2042 C.ar    1  UNL1       -0.0582
      2 C          -2.5401   -2.8177    1.1915 C.ar    1  UNL1       -0.0610
      3 C          -1.9412   -1.6171    0.7828 C.ar    1  UNL1       -0.0504
      4 C          -2.7617   -0.5440    0.3796 C.ar    1  UNL1        0.0285
      5 C          -4.1398   -0.7308    0.4104 C.ar    1  UNL1        0.1363
      6 C          -4.7642   -1.9107    0.8111 C.ar    1  UNL1       -0.0187
      7 O          -4.7849    0.3926   -0.0015 O.2     1  UNL1       -0.4548
      8 C          -3.8301    1.3138   -0.3015 C.ar    1  UNL1        0.1368
      9 C          -4.0917    2.6042   -0.7592 C.ar    1  UNL1       -0.0187
     10 C          -2.9862    3.4161   -1.0170 C.ar    1  UNL1       -0.0577
     11 C          -1.6879    2.9410   -0.8219 C.ar    1  UNL1       -0.0532
     12 C          -1.4436    1.6305   -0.3597 C.ar    1  UNL1       -0.0065
     13 C          -0.0817    1.1375   -0.1632 C.ar    1  UNL1       -0.0152
     14 C           0.5916    1.3801    1.0418 C.ar    1  UNL1       -0.0533
     15 C           1.8949    0.9118    1.2580 C.ar    1  UNL1       -0.0514
     16 C           2.5454    0.1828    0.2434 C.ar    1  UNL1        0.0090
     17 C           1.8634   -0.0466   -0.9540 C.ar    1  UNL1        0.0492
     18 C           0.5617    0.4170   -1.1851 C.ar    1  UNL1       -0.0300
     19 N           2.7055   -0.7703   -1.7671 N.ar    1  UNL1       -0.3390
     20 C           3.8915   -1.0099   -1.1345 C.ar    1  UNL1        0.1391
     21 N           4.9156   -1.6953   -1.6756 N.ar    1  UNL1       -0.2375
     22 C           5.9784   -1.7929   -0.8444 C.ar    1  UNL1        0.0299
     23 C           6.0569   -1.2629    0.4374 C.ar    1  UNL1       -0.0429
     24 C           4.9639   -0.5613    0.9482 C.ar    1  UNL1       -0.0490
     25 C           3.8314   -0.4290    0.1261 C.ar    1  UNL1        0.0264
     26 C          -2.5551    0.7943   -0.0899 C.ar    1  UNL1        0.0356
     27 H          -4.3692   -3.9017    1.5258 H       1  UNL1        0.0619
     28 H          -1.9103   -3.6484    1.5033 H       1  UNL1        0.0618
     29 H          -0.8589   -1.5251    0.7823 H       1  UNL1        0.0625
     30 H          -5.8434   -2.0022    0.8156 H       1  UNL1        0.0654
     31 H          -5.1072    2.9528   -0.9045 H       1  UNL1        0.0654
     32 H          -3.1391    4.4318   -1.3755 H       1  UNL1        0.0619
     33 H          -0.8461    3.5988   -1.0348 H       1  UNL1        0.0624
     34 H           0.0966    1.9377    1.8354 H       1  UNL1        0.0624
     35 H           2.3939    1.1100    2.2020 H       1  UNL1        0.0624
     36 H           0.0570    0.2192   -2.1271 H       1  UNL1        0.0644
     37 H           2.4974   -1.0899   -2.7002 H       1  UNL1        0.1673
     38 H           6.8215   -2.3423   -1.2574 H       1  UNL1        0.0830
     39 H           6.9556   -1.3936    1.0305 H       1  UNL1        0.0633
     40 H           4.9892   -0.1337    1.9446 H       1  UNL1        0.0625
@<TRIPOS>BOND
     1     1     2   ar
     2     2     3   ar
     3     3     4   ar
     4     4     5   ar
     5     5     6   ar
     6     5     7   ar
     7     7     8   ar
     8     8     9   ar
     9     9    10   ar
    10    10    11   ar
    11    11    12   ar
    12    12    13    1
    13    13    14   ar
    14    14    15   ar
    15    15    16   ar
    16    16    17   ar
    17    17    18   ar
    18    17    19   ar
    19    19    20   ar
    20    20    21   ar
    21    21    22   ar
    22    22    23   ar
    23    23    24   ar
    24    24    25   ar
    25    12    26   ar
    26     6     1   ar
    27    26     8   ar
    28    26     4   ar
    29    18    13   ar
    30    25    20   ar
    31    25    16   ar
    32     1    27    1
    33     2    28    1
    34     3    29    1
    35     6    30    1
    36     9    31    1
    37    10    32    1
    38    11    33    1
    39    14    34    1
    40    15    35    1
    41    18    36    1
    42    19    37    1
    43    22    38    1
    44    23    39    1
    45    24    40    1
