@<TRIPOS>MOLECULE
*****
 40 45 0 0 0
SMALL
GASTEIGER

@<TRIPOS>ATOM
      1 C           3.8233    3.1621    1.1076 C.ar    1  UNL1       -0.0582
      2 C           2.4590    2.9864    0.8702 C.ar    1  UNL1       -0.0610
      3 C           1.9475    1.7379    0.4867 C.ar    1  UNL1       -0.0504
      4 C           2.8318    0.6495    0.3423 C.ar    1  UNL1        0.0285
      5 C           4.1828    0.8716    0.5883 C.ar    1  UNL1        0.1363
      6 C           4.7209    2.0994    0.9700 C.ar    1  UNL1       -0.0187
      7 O           4.8974   -0.2699    0.4042 O.2     1  UNL1       -0.4548
      8 C           4.0152   -1.2384    0.0384 C.ar    1  UNL1        0.1368
      9 C           4.3621   -2.5586   -0.2435 C.ar    1  UNL1       -0.0187
     10 C           3.3236   -3.4182   -0.6046 C.ar    1  UNL1       -0.0577
     11 C           2.0065   -2.9603   -0.6740 C.ar    1  UNL1       -0.0532
     12 C           1.6753   -1.6198   -0.3837 C.ar    1  UNL1       -0.0065
     13 C           0.2945   -1.1482   -0.4563 C.ar    1  UNL1       -0.0161
     14 C          -0.2414   -0.7053   -1.6654 C.ar    1  UNL1       -0.0534
     15 C          -1.5614   -0.2462   -1.7426 C.ar    1  UNL1       -0.0524
     16 C          -2.3893   -0.2215   -0.5914 C.ar    1  UNL1       -0.0031
     17 C          -1.8415   -0.6718    0.6091 C.ar    1  UNL1        0.0211
     18 C          -0.5127   -1.1374    0.6916 C.ar    1  UNL1       -0.0397
     19 S          -2.9736   -0.5731    1.8935 S.2     1  UNL1       -0.0882
     20 C          -4.2055    0.0660    0.8860 C.ar    1  UNL1        0.0205
     21 C          -5.5128    0.4222    1.2748 C.ar    1  UNL1       -0.0474
     22 C          -6.3914    0.9310    0.3168 C.ar    1  UNL1       -0.0607
     23 C          -5.9837    1.0839   -0.9995 C.ar    1  UNL1       -0.0611
     24 C          -4.6859    0.7289   -1.3797 C.ar    1  UNL1       -0.0529
     25 C          -3.7666    0.2084   -0.4308 C.ar    1  UNL1       -0.0031
     26 C           2.7181   -0.7334   -0.0168 C.ar    1  UNL1        0.0356
     27 H           4.1954    4.1404    1.4044 H       1  UNL1        0.0619
     28 H           1.7796    3.8287    0.9840 H       1  UNL1        0.0618
     29 H           0.8829    1.6227    0.3063 H       1  UNL1        0.0625
     30 H           5.7826    2.2166    1.1496 H       1  UNL1        0.0654
     31 H           5.3907   -2.8937   -0.1830 H       1  UNL1        0.0654
     32 H           3.5443   -4.4586   -0.8335 H       1  UNL1        0.0619
     33 H           1.2189   -3.6575   -0.9568 H       1  UNL1        0.0624
     34 H           0.3702   -0.7070   -2.5662 H       1  UNL1        0.0624
     35 H          -1.9496    0.0957   -2.6988 H       1  UNL1        0.0624
     36 H          -0.1153   -1.4793    1.6449 H       1  UNL1        0.0635
     37 H          -5.8343    0.3030    2.3059 H       1  UNL1        0.0629
     38 H          -7.4019    1.2083    0.6078 H       1  UNL1        0.0618
     39 H          -6.6736    1.4806   -1.7404 H       1  UNL1        0.0618
     40 H          -4.3824    0.8550   -2.4159 H       1  UNL1        0.0624
@<TRIPOS>BOND
     1     1     2   ar
     2     2     3   ar
     3     3     4   ar
     4     4     5   ar
     5     5     6   ar
     6     5     7   ar
     7     7     8   ar
     8     8     9   ar
     9     9    10   ar
    10    10    11   ar
    11    11    12   ar
    12    12    13    1
    13    13    14   ar
    14    14    15   ar
    15    15    16   ar
    16    16    17   ar
    17    17    18   ar
    18    17    19   ar
    19    19    20   ar
    20    20    21   ar
    21    21    22   ar
    22    22    23   ar
    23    23    24   ar
    24    24    25   ar
    25    12    26   ar
    26     6     1   ar
    27    26     8   ar
    28    26     4   ar
    29    18    13   ar
    30    25    20   ar
    31    25    16   ar
    32     1    27    1
    33     2    28    1
    34     3    29    1
    35     6    30    1
    36     9    31    1
    37    10    32    1
    38    11    33    1
    39    14    34    1
    40    15    35    1
    41    18    36    1
    42    21    37    1
    43    22    38    1
    44    23    39    1
    45    24    40    1
