@<TRIPOS>MOLECULE
*****
 35 39 0 0 0
SMALL
GASTEIGER

@<TRIPOS>ATOM
      1 C          -3.4197    2.6561    1.4336 C.ar    1  UNL1       -0.0582
      2 C          -2.0417    2.7470    1.2305 C.ar    1  UNL1       -0.0610
      3 C          -1.3216    1.6801    0.6731 C.ar    1  UNL1       -0.0504
      4 C          -2.0081    0.5020    0.3148 C.ar    1  UNL1        0.0285
      5 C          -3.3805    0.4559    0.5378 C.ar    1  UNL1        0.1363
      6 C          -4.1233    1.4986    1.0889 C.ar    1  UNL1       -0.0187
      7 O          -3.8896   -0.7418    0.1462 O.2     1  UNL1       -0.4548
      8 C          -2.8521   -1.4796   -0.3320 C.ar    1  UNL1        0.1368
      9 C          -2.9674   -2.7769   -0.8281 C.ar    1  UNL1       -0.0187
     10 C          -1.7946   -3.3847   -1.2778 C.ar    1  UNL1       -0.0577
     11 C          -0.5738   -2.7091   -1.2282 C.ar    1  UNL1       -0.0532
     12 C          -0.4779   -1.3944   -0.7248 C.ar    1  UNL1       -0.0065
     13 C           0.8019   -0.6931   -0.6837 C.ar    1  UNL1       -0.0151
     14 C           1.1926    0.1465   -1.7301 C.ar    1  UNL1       -0.0519
     15 C           2.4198    0.8114   -1.6783 C.ar    1  UNL1       -0.0337
     16 C           3.2788    0.6568   -0.5994 C.ar    1  UNL1        0.0892
     17 N           4.4533    1.3175   -0.5851 N.ar    1  UNL1       -0.2519
     18 C           5.2392    1.1199    0.4950 C.ar    1  UNL1        0.0464
     19 C           4.8688    0.2902    1.5327 C.ar    1  UNL1        0.0464
     20 N           3.6960   -0.3790    1.5367 N.ar    1  UNL1       -0.2519
     21 C           2.8969   -0.1957    0.4665 C.ar    1  UNL1        0.0897
     22 C           1.6732   -0.8518    0.4038 C.ar    1  UNL1       -0.0265
     23 C          -1.6588   -0.7643   -0.2594 C.ar    1  UNL1        0.0356
     24 H          -3.9556    3.4972    1.8684 H       1  UNL1        0.0619
     25 H          -1.5155    3.6578    1.5094 H       1  UNL1        0.0618
     26 H          -0.2497    1.7715    0.5273 H       1  UNL1        0.0625
     27 H          -5.1920    1.4086    1.2408 H       1  UNL1        0.0654
     28 H          -3.9250   -3.2831   -0.8582 H       1  UNL1        0.0654
     29 H          -1.8334   -4.3978   -1.6723 H       1  UNL1        0.0619
     30 H           0.3222   -3.2126   -1.5892 H       1  UNL1        0.0624
     31 H           0.5425    0.2921   -2.5910 H       1  UNL1        0.0624
     32 H           2.7129    1.4645   -2.4967 H       1  UNL1        0.0640
     33 H           6.1830    1.6526    0.5017 H       1  UNL1        0.0845
     34 H           5.5069    0.1383    2.3955 H       1  UNL1        0.0845
     35 H           1.3924   -1.5006    1.2315 H       1  UNL1        0.0645
@<TRIPOS>BOND
     1     1     2   ar
     2     2     3   ar
     3     3     4   ar
     4     4     5   ar
     5     5     6   ar
     6     5     7   ar
     7     7     8   ar
     8     8     9   ar
     9     9    10   ar
    10    10    11   ar
    11    11    12   ar
    12    12    13    1
    13    13    14   ar
    14    14    15   ar
    15    15    16   ar
    16    16    17   ar
    17    17    18   ar
    18    18    19   ar
    19    19    20   ar
    20    20    21   ar
    21    21    22   ar
    22    12    23   ar
    23     6     1   ar
    24    23     8   ar
    25    23     4   ar
    26    22    13   ar
    27    21    16   ar
    28     1    24    1
    29     2    25    1
    30     3    26    1
    31     6    27    1
    32     9    28    1
    33    10    29    1
    34    11    30    1
    35    14    31    1
    36    15    32    1
    37    18    33    1
    38    19    34    1
    39    22    35    1
