@<TRIPOS>MOLECULE
*****
 43 49 0 0 0
SMALL
GASTEIGER

@<TRIPOS>ATOM
      1 SI          1.3246    2.6181   -3.3736 Si      1  UNL1        0.0000
      2 C           2.7443    2.2309   -2.2396 C.2     1  UNL1        0.0000
      3 C           2.3878    1.3942   -1.2397 C.ar    1  UNL1        0.0000
      4 C           3.3434    0.7918   -0.2696 C.ar    1  UNL1        0.0000
      5 C           4.7496    1.1157   -0.3269 C.ar    1  UNL1        0.0000
      6 C           5.7542    0.4751    0.4223 C.ar    1  UNL1        0.0000
      7 C           5.2343   -0.5658    1.1790 C.ar    1  UNL1        0.0000
      8 C           6.0571   -1.3920    1.9048 C.ar    1  UNL1        0.0000
      9 S           5.1665   -2.6493    2.6505 S.2     1  UNL1        0.0000
     10 C           3.6838   -2.0789    1.9906 C.ar    1  UNL1        0.0000
     11 C           3.8298   -0.9054    1.2816 C.ar    1  UNL1        0.0000
     12 C           2.7938   -0.1823    0.6326 C.ar    1  UNL1        0.0000
     13 C           1.3316   -0.3539    0.8099 C.ar    1  UNL1        0.0000
     14 C           0.7801   -0.9125    1.9594 C.ar    1  UNL1        0.0000
     15 N          -0.5211   -1.1437    2.2087 N.ar    1  UNL1        0.0000
     16 C          -1.3825   -0.7307    1.2507 C.ar    1  UNL1        0.0000
     17 C          -2.7926   -0.9095    1.3490 C.ar    1  UNL1        0.0000
     18 C          -3.4804   -0.3691    0.2867 C.ar    1  UNL1        0.0000
     19 S          -2.3952    0.3464   -0.8166 S.2     1  UNL1        0.0000
     20 C          -0.9798   -0.0654    0.0872 C.ar    1  UNL1        0.0000
     21 C           0.4083    0.1622   -0.1383 C.ar    1  UNL1        0.0000
     22 C           0.9473    1.0013   -1.2466 C.ar    1  UNL1        0.0000
     23 C           0.2747    1.5127   -2.3010 C.2     1  UNL1        0.0000
     24 C          -4.9261   -0.3713    0.0333 C.ar    1  UNL1        0.0000
     25 C          -5.7070   -1.4876    0.3547 C.ar    1  UNL1        0.0000
     26 C          -7.0811   -1.4748    0.1175 C.ar    1  UNL1        0.0000
     27 C          -7.6425   -0.3368   -0.4351 C.ar    1  UNL1        0.0000
     28 N          -6.9335    0.7644   -0.7566 N.ar    1  UNL1        0.0000
     29 C          -5.5988    0.7213   -0.5143 C.ar    1  UNL1        0.0000
     30 H           0.9127    4.0403   -3.3034 H       1  UNL1        0.0000
     31 H           1.5221    2.0703   -4.7369 H       1  UNL1        0.0000
     32 H           3.7175    2.6262   -2.4744 H       1  UNL1        0.0000
     33 H           5.0906    1.8964   -1.0048 H       1  UNL1        0.0000
     34 H           6.8011    0.7364    0.3421 H       1  UNL1        0.0000
     35 H           7.1318   -1.3505    2.0186 H       1  UNL1        0.0000
     36 H           2.8049   -2.6806    2.1666 H       1  UNL1        0.0000
     37 H           1.4027   -1.1811    2.8081 H       1  UNL1        0.0000
     38 H          -3.2661   -1.4036    2.1877 H       1  UNL1        0.0000
     39 H          -0.7529    1.3968   -2.5859 H       1  UNL1        0.0000
     40 H          -5.2539   -2.3796    0.7802 H       1  UNL1        0.0000
     41 H          -7.6970   -2.3344    0.3570 H       1  UNL1        0.0000
     42 H          -8.7079   -0.2791   -0.6393 H       1  UNL1        0.0000
     43 H          -5.0762    1.6376   -0.7764 H       1  UNL1        0.0000
@<TRIPOS>BOND
     1     1     2    1
     2     2     3    2
     3     3     4   ar
     4     4     5   ar
     5     5     6   ar
     6     6     7   ar
     7     7     8   ar
     8     8     9   ar
     9     9    10   ar
    10    10    11   ar
    11    11    12   ar
    12    12    13   ar
    13    13    14   ar
    14    14    15   ar
    15    15    16   ar
    16    16    17   ar
    17    17    18   ar
    18    18    19   ar
    19    19    20   ar
    20    20    21   ar
    21    21    22   ar
    22    22    23    2
    23    18    24    1
    24    24    25   ar
    25    25    26   ar
    26    26    27   ar
    27    27    28   ar
    28    28    29   ar
    29    23     1    1
    30    29    24   ar
    31    22     3   ar
    32    12     4   ar
    33    21    13   ar
    34    11     7   ar
    35    20    16   ar
    36     1    30    1
    37     1    31    1
    38     2    32    1
    39     5    33    1
    40     6    34    1
    41     8    35    1
    42    10    36    1
    43    14    37    1
    44    17    38    1
    45    23    39    1
    46    25    40    1
    47    26    41    1
    48    27    42    1
    49    29    43    1
