@<TRIPOS>MOLECULE
*****
 33 37 0 0 0
SMALL
GASTEIGER

@<TRIPOS>ATOM
      1 C          -3.9062    2.4432    0.0636 C.ar    1  UNL1       -0.0582
      2 C          -2.5414    2.7270    0.1161 C.ar    1  UNL1       -0.0610
      3 C          -1.5863    1.7001    0.0650 C.ar    1  UNL1       -0.0504
      4 C          -2.0178    0.3618   -0.0502 C.ar    1  UNL1        0.0285
      5 C          -3.3896    0.1288   -0.0807 C.ar    1  UNL1        0.1363
      6 C          -4.3619    1.1264   -0.0327 C.ar    1  UNL1       -0.0187
      7 O          -3.6478   -1.2019   -0.1534 O.2     1  UNL1       -0.4548
      8 C          -2.4498   -1.8426   -0.1661 C.ar    1  UNL1        0.1369
      9 C          -2.3031   -3.2280   -0.2025 C.ar    1  UNL1       -0.0187
     10 C          -1.0003   -3.7220   -0.1983 C.ar    1  UNL1       -0.0576
     11 C           0.0905   -2.8520   -0.1846 C.ar    1  UNL1       -0.0517
     12 C          -0.0732   -1.4470   -0.1775 C.ar    1  UNL1        0.0132
     13 C           1.0875   -0.5641   -0.2202 C.ar    1  UNL1        0.0922
     14 C           1.3060    0.3466   -1.2426 C.ar    1  UNL1        0.0561
     15 N           2.3895    1.1532   -1.2895 N.ar    1  UNL1       -0.2310
     16 C           3.2792    1.0233   -0.2985 C.ar    1  UNL1        0.1977
     17 N           4.3637    1.8100   -0.3181 N.ar    1  UNL1       -0.2316
     18 C           5.2478    1.6566    0.6882 C.ar    1  UNL1        0.0482
     19 C           5.0564    0.7375    1.6956 C.ar    1  UNL1        0.0482
     20 N           3.9727   -0.0637    1.7372 N.ar    1  UNL1       -0.2316
     21 C           3.0778    0.0710    0.7489 C.ar    1  UNL1        0.1983
     22 N           1.9922   -0.7130    0.7743 N.ar    1  UNL1       -0.2231
     23 C          -1.3950   -0.9308   -0.1374 C.ar    1  UNL1        0.0371
     24 H          -4.6273    3.2568    0.1075 H       1  UNL1        0.0619
     25 H          -2.2103    3.7602    0.2042 H       1  UNL1        0.0618
     26 H          -0.5334    1.9559    0.1303 H       1  UNL1        0.0625
     27 H          -5.4175    0.8844   -0.0622 H       1  UNL1        0.0654
     28 H          -3.1659   -3.8836   -0.2170 H       1  UNL1        0.0654
     29 H          -0.8324   -4.7969   -0.2077 H       1  UNL1        0.0619
     30 H           1.0970   -3.2716   -0.1837 H       1  UNL1        0.0624
     31 H           0.6083    0.4581   -2.0673 H       1  UNL1        0.0852
     32 H           6.1207    2.2992    0.6590 H       1  UNL1        0.0846
     33 H           5.7703    0.6170    2.5028 H       1  UNL1        0.0846
@<TRIPOS>BOND
     1     1     2   ar
     2     2     3   ar
     3     3     4   ar
     4     4     5   ar
     5     5     6   ar
     6     5     7   ar
     7     7     8   ar
     8     8     9   ar
     9     9    10   ar
    10    10    11   ar
    11    11    12   ar
    12    12    13    1
    13    13    14   ar
    14    14    15   ar
    15    15    16   ar
    16    16    17   ar
    17    17    18   ar
    18    18    19   ar
    19    19    20   ar
    20    20    21   ar
    21    21    22   ar
    22    12    23   ar
    23     6     1   ar
    24    23     8   ar
    25    23     4   ar
    26    22    13   ar
    27    21    16   ar
    28     1    24    1
    29     2    25    1
    30     3    26    1
    31     6    27    1
    32     9    28    1
    33    10    29    1
    34    11    30    1
    35    14    31    1
    36    18    32    1
    37    19    33    1
