@<TRIPOS>MOLECULE
*****
 27 30 0 0 0
SMALL
GASTEIGER

@<TRIPOS>ATOM
      1 C           3.6115   -1.3998    0.4236 C.ar    1  UNL1       -0.0582
      2 C           2.4722   -2.0837    0.8499 C.ar    1  UNL1       -0.0610
      3 C           1.1927   -1.5338    0.6799 C.ar    1  UNL1       -0.0504
      4 C           1.0633   -0.2720    0.0638 C.ar    1  UNL1        0.0285
      5 C           2.2282    0.3763   -0.3358 C.ar    1  UNL1        0.1363
      6 C           3.5120   -0.1441   -0.1812 C.ar    1  UNL1       -0.0187
      7 O           1.9398    1.5834   -0.8890 O.2     1  UNL1       -0.4548
      8 C           0.5888    1.7274   -0.8517 C.ar    1  UNL1        0.1368
      9 C          -0.1000    2.8478   -1.3162 C.ar    1  UNL1       -0.0187
     10 C          -1.4915    2.8285   -1.1988 C.ar    1  UNL1       -0.0577
     11 C          -2.1484    1.7278   -0.6472 C.ar    1  UNL1       -0.0531
     12 C          -1.4260    0.6089   -0.1928 C.ar    1  UNL1       -0.0020
     13 C          -2.1131   -0.5342    0.3442 C.ar    1  UNL1        0.0414
     14 C          -2.3037   -1.8315   -0.1711 C.ar    1  UNL1        0.0777
     15 N          -3.0148   -2.6004    0.6582 N.ar    1  UNL1       -0.0862
     16 O          -3.3139   -1.7882    1.7429 O.2     1  UNL1       -0.3623
     17 C          -2.7768   -0.5570    1.5452 C.ar    1  UNL1        0.1319
     18 C          -0.0154    0.6054   -0.2871 C.ar    1  UNL1        0.0357
     19 H           4.5926   -1.8474    0.5678 H       1  UNL1        0.0619
     20 H           2.5754   -3.0577    1.3246 H       1  UNL1        0.0618
     21 H           0.3246   -2.0832    1.0318 H       1  UNL1        0.0625
     22 H           4.3851    0.4048   -0.5127 H       1  UNL1        0.0654
     23 H           0.4278    3.6917   -1.7454 H       1  UNL1        0.0654
     24 H          -2.0695    3.6818   -1.5483 H       1  UNL1        0.0619
     25 H          -3.2354    1.7394   -0.5832 H       1  UNL1        0.0624
     26 H          -1.9559   -2.2502   -1.1053 H       1  UNL1        0.0870
     27 H          -2.9497    0.1600    2.3342 H       1  UNL1        0.1064
@<TRIPOS>BOND
     1     1     2   ar
     2     2     3   ar
     3     3     4   ar
     4     4     5   ar
     5     5     6   ar
     6     5     7   ar
     7     7     8   ar
     8     8     9   ar
     9     9    10   ar
    10    10    11   ar
    11    11    12   ar
    12    12    13    1
    13    13    14   ar
    14    14    15   ar
    15    15    16   ar
    16    16    17   ar
    17    12    18   ar
    18     6     1   ar
    19    18     8   ar
    20    18     4   ar
    21    17    13   ar
    22     1    19    1
    23     2    20    1
    24     3    21    1
    25     6    22    1
    26     9    23    1
    27    10    24    1
    28    11    25    1
    29    14    26    1
    30    17    27    1
