@<TRIPOS>MOLECULE
*****
 27 30 0 0 0
SMALL
GASTEIGER

@<TRIPOS>ATOM
      1 C           3.7984   -0.6055    0.7131 C.ar    1  UNL1       -0.0582
      2 C           2.8381   -1.6173    0.6678 C.ar    1  UNL1       -0.0610
      3 C           1.4907   -1.3227    0.4123 C.ar    1  UNL1       -0.0504
      4 C           1.1068    0.0170    0.2004 C.ar    1  UNL1        0.0285
      5 C           2.0990    0.9908    0.2540 C.ar    1  UNL1        0.1363
      6 C           3.4453    0.7306    0.5053 C.ar    1  UNL1       -0.0187
      7 O           1.5741    2.2230    0.0246 O.2     1  UNL1       -0.4548
      8 C           0.2405    2.0562   -0.1806 C.ar    1  UNL1        0.1369
      9 C          -0.6503    3.0932   -0.4584 C.ar    1  UNL1       -0.0187
     10 C          -1.9883    2.7437   -0.6494 C.ar    1  UNL1       -0.0576
     11 C          -2.3980    1.4124   -0.5641 C.ar    1  UNL1       -0.0517
     12 C          -1.4756    0.3852   -0.2819 C.ar    1  UNL1        0.0122
     13 C          -1.9117   -0.9914   -0.1952 C.ar    1  UNL1        0.0788
     14 C          -2.4586   -1.6737   -1.2653 C.ar    1  UNL1        0.0031
     15 S          -2.8840   -3.2650   -0.7840 S.2     1  UNL1       -0.0833
     16 C          -2.3193   -2.9144    0.7970 C.ar    1  UNL1        0.0654
     17 N          -1.8313   -1.7082    0.9852 N.ar    1  UNL1       -0.2474
     18 C          -0.1149    0.7119   -0.0813 C.ar    1  UNL1        0.0371
     19 H           4.8370   -0.8587    0.9145 H       1  UNL1        0.0619
     20 H           3.1354   -2.6503    0.8358 H       1  UNL1        0.0618
     21 H           0.7573   -2.1224    0.3867 H       1  UNL1        0.0625
     22 H           4.1758    1.5298    0.5366 H       1  UNL1        0.0654
     23 H          -0.3112    4.1207   -0.5196 H       1  UNL1        0.0654
     24 H          -2.7195    3.5205   -0.8623 H       1  UNL1        0.0619
     25 H          -3.4507    1.1737   -0.7046 H       1  UNL1        0.0624
     26 H          -2.6224   -1.3294   -2.2765 H       1  UNL1        0.0715
     27 H          -2.3624   -3.6497    1.5898 H       1  UNL1        0.0907
@<TRIPOS>BOND
     1     1     2   ar
     2     2     3   ar
     3     3     4   ar
     4     4     5   ar
     5     5     6   ar
     6     5     7   ar
     7     7     8   ar
     8     8     9   ar
     9     9    10   ar
    10    10    11   ar
    11    11    12   ar
    12    12    13    1
    13    13    14   ar
    14    14    15   ar
    15    15    16   ar
    16    16    17   ar
    17    12    18   ar
    18     6     1   ar
    19    18     8   ar
    20    18     4   ar
    21    17    13   ar
    22     1    19    1
    23     2    20    1
    24     3    21    1
    25     6    22    1
    26     9    23    1
    27    10    24    1
    28    11    25    1
    29    14    26    1
    30    16    27    1
