@<TRIPOS>MOLECULE
*****
 26 29 0 0 0
SMALL
GASTEIGER

@<TRIPOS>ATOM
      1 C           3.7467   -0.2079    0.7704 C.ar    1  UNL1       -0.0582
      2 C           2.8460   -1.2146    1.1171 C.ar    1  UNL1       -0.0610
      3 C           1.4768   -1.0869    0.8369 C.ar    1  UNL1       -0.0504
      4 C           1.0058    0.0746    0.1900 C.ar    1  UNL1        0.0286
      5 C           1.9431    1.0545   -0.1248 C.ar    1  UNL1        0.1363
      6 C           3.3089    0.9582    0.1387 C.ar    1  UNL1       -0.0187
      7 O           1.3433    2.1195   -0.7140 O.2     1  UNL1       -0.4548
      8 C           0.0153    1.8431   -0.7821 C.ar    1  UNL1        0.1369
      9 C          -0.9369    2.7184   -1.3048 C.ar    1  UNL1       -0.0187
     10 C          -2.2634    2.2916   -1.2904 C.ar    1  UNL1       -0.0576
     11 C          -2.5991    1.0360   -0.7853 C.ar    1  UNL1       -0.0501
     12 C          -1.6153    0.1584   -0.2767 C.ar    1  UNL1        0.0338
     13 C          -1.9998   -1.1538    0.2058 C.ar    1  UNL1        0.2025
     14 N          -1.3168   -2.3038   -0.1232 N.ar    1  UNL1       -0.1941
     15 C          -2.0386   -3.2310    0.4524 C.ar    1  UNL1        0.2147
     16 O          -3.1219   -2.7543    1.1115 O.2     1  UNL1       -0.3411
     17 N          -3.1070   -1.3711    0.9382 N.ar    1  UNL1       -0.0564
     18 C          -0.2630    0.5794   -0.2587 C.ar    1  UNL1        0.0387
     19 H           4.8035   -0.3289    0.9977 H       1  UNL1        0.0619
     20 H           3.2074   -2.1130    1.6130 H       1  UNL1        0.0618
     21 H           0.7990   -1.8832    1.1245 H       1  UNL1        0.0625
     22 H           3.9906    1.7552   -0.1325 H       1  UNL1        0.0654
     23 H          -0.6508    3.6885   -1.6943 H       1  UNL1        0.0654
     24 H          -3.0425    2.9429   -1.6808 H       1  UNL1        0.0619
     25 H          -3.6444    0.7278   -0.7971 H       1  UNL1        0.0625
     26 H          -1.8868   -4.2995    0.4684 H       1  UNL1        0.1283
@<TRIPOS>BOND
     1     1     2   ar
     2     2     3   ar
     3     3     4   ar
     4     4     5   ar
     5     5     6   ar
     6     5     7   ar
     7     7     8   ar
     8     8     9   ar
     9     9    10   ar
    10    10    11   ar
    11    11    12   ar
    12    12    13    1
    13    13    14   ar
    14    14    15   ar
    15    15    16   ar
    16    16    17   ar
    17    12    18   ar
    18     6     1   ar
    19    18     8   ar
    20    18     4   ar
    21    17    13   ar
    22     1    19    1
    23     2    20    1
    24     3    21    1
    25     6    22    1
    26     9    23    1
    27    10    24    1
    28    11    25    1
    29    15    26    1
