@<TRIPOS>MOLECULE
*****
 42 46 0 0 0
SMALL
GASTEIGER

@<TRIPOS>ATOM
      1 C          -3.8087   -3.5265   -0.9360 C.ar    1  UNL1       -0.0582
      2 C          -2.4187   -3.5594   -1.0049 C.ar    1  UNL1       -0.0598
      3 C          -1.6712   -2.4223   -0.6796 C.ar    1  UNL1       -0.0364
      4 C          -2.3008   -1.2298   -0.2819 C.ar    1  UNL1        0.0813
      5 C          -3.7038   -1.2210   -0.2145 C.ar    1  UNL1        0.1501
      6 C          -4.4522   -2.3570   -0.5395 C.ar    1  UNL1       -0.0175
      7 O          -4.4310   -0.1187    0.1723 O.3     1  UNL1       -0.4523
      8 C          -3.7360    1.0217    0.5038 C.ar    1  UNL1        0.1501
      9 C          -4.5166    2.1167    0.8883 C.ar    1  UNL1       -0.0175
     10 C          -3.9078    3.3197    1.2361 C.ar    1  UNL1       -0.0582
     11 C          -2.5205    3.4271    1.1969 C.ar    1  UNL1       -0.0598
     12 C          -1.7407    2.3311    0.8122 C.ar    1  UNL1       -0.0364
     13 C          -2.3345    1.1057    0.4620 C.ar    1  UNL1        0.0813
     14 N          -1.5752   -0.0421    0.0612 N.pl3   1  UNL1       -0.2627
     15 C          -0.1500   -0.0039    0.0058 C.ar    1  UNL1        0.0390
     16 C           0.5064    0.2500   -1.2040 C.ar    1  UNL1       -0.0394
     17 C           1.9033    0.2874   -1.2565 C.ar    1  UNL1       -0.0523
     18 C           2.6778    0.0718   -0.1041 C.ar    1  UNL1       -0.0177
     19 C           4.1479    0.1111   -0.1613 C.ar    1  UNL1       -0.0150
     20 C           4.8231    1.2092   -0.7072 C.ar    1  UNL1       -0.0359
     21 C           6.2092    1.2012   -0.7378 C.ar    1  UNL1        0.0281
     22 N           6.9647    0.1864   -0.2708 N.ar    1  UNL1       -0.2632
     23 C           6.3029   -0.8663    0.2513 C.ar    1  UNL1        0.0281
     24 C           4.9210   -0.9483    0.3284 C.ar    1  UNL1       -0.0359
     25 C           2.0076   -0.1825    1.1044 C.ar    1  UNL1       -0.0523
     26 C           0.6109   -0.2198    1.1606 C.ar    1  UNL1       -0.0394
     27 H          -4.3895   -4.4097   -1.1882 H       1  UNL1        0.0619
     28 H          -1.9106   -4.4706   -1.3109 H       1  UNL1        0.0618
     29 H          -0.5884   -2.4879   -0.7409 H       1  UNL1        0.0637
     30 H          -5.5367   -2.3262   -0.4807 H       1  UNL1        0.0655
     31 H          -5.5992    2.0277    0.9139 H       1  UNL1        0.0655
     32 H          -4.5138    4.1711    1.5345 H       1  UNL1        0.0619
     33 H          -2.0397    4.3649    1.4644 H       1  UNL1        0.0618
     34 H          -0.6614    2.4547    0.7893 H       1  UNL1        0.0637
     35 H          -0.0737    0.4181   -2.1082 H       1  UNL1        0.0636
     36 H           2.3849    0.4753   -2.2142 H       1  UNL1        0.0624
     37 H           4.2830    2.0676   -1.0935 H       1  UNL1        0.0639
     38 H           6.7635    2.0393   -1.1505 H       1  UNL1        0.0830
     39 H           6.9315   -1.6728    0.6180 H       1  UNL1        0.0830
     40 H           4.4591   -1.8335    0.7537 H       1  UNL1        0.0639
     41 H           2.5715   -0.3424    2.0214 H       1  UNL1        0.0624
     42 H           0.1125   -0.4168    2.1067 H       1  UNL1        0.0636
@<TRIPOS>BOND
     1     1     2   ar
     2     2     3   ar
     3     3     4   ar
     4     4     5   ar
     5     5     6   ar
     6     5     7    1
     7     7     8    1
     8     8     9   ar
     9     9    10   ar
    10    10    11   ar
    11    11    12   ar
    12    12    13   ar
    13    13    14    1
    14    14    15    1
    15    15    16   ar
    16    16    17   ar
    17    17    18   ar
    18    18    19    1
    19    19    20   ar
    20    20    21   ar
    21    21    22   ar
    22    22    23   ar
    23    23    24   ar
    24    18    25   ar
    25    25    26   ar
    26     6     1   ar
    27    13     8   ar
    28    26    15   ar
    29    14     4    1
    30    24    19   ar
    31     1    27    1
    32     2    28    1
    33     3    29    1
    34     6    30    1
    35     9    31    1
    36    10    32    1
    37    11    33    1
    38    12    34    1
    39    16    35    1
    40    17    36    1
    41    20    37    1
    42    21    38    1
    43    23    39    1
    44    24    40    1
    45    25    41    1
    46    26    42    1
