@<TRIPOS>MOLECULE
*****
 78 88 0 0 0
SMALL
GASTEIGER

@<TRIPOS>ATOM
      1 C         -11.3691    3.3164    0.1018 C.ar    1  UNL1       -0.0582
      2 C          -9.9915    3.4370    0.2638 C.ar    1  UNL1       -0.0598
      3 C          -9.1641    2.3179    0.1158 C.ar    1  UNL1       -0.0364
      4 C          -9.6996    1.0541   -0.1901 C.ar    1  UNL1        0.0813
      5 C         -11.0909    0.9596   -0.3637 C.ar    1  UNL1        0.1501
      6 C         -11.9195    2.0777   -0.2160 C.ar    1  UNL1       -0.0175
      7 O         -11.7299   -0.2129   -0.6951 O.3     1  UNL1       -0.4523
      8 C         -10.9556   -1.3389   -0.8581 C.ar    1  UNL1        0.1501
      9 C         -11.6502   -2.5058   -1.1960 C.ar    1  UNL1       -0.0175
     10 C         -10.9602   -3.7033   -1.3672 C.ar    1  UNL1       -0.0582
     11 C          -9.5790   -3.7342   -1.1927 C.ar    1  UNL1       -0.0598
     12 C          -8.8860   -2.5666   -0.8534 C.ar    1  UNL1       -0.0364
     13 C          -9.5601   -1.3427   -0.6904 C.ar    1  UNL1        0.0813
     14 N          -8.8901   -0.1204   -0.3478 N.pl3   1  UNL1       -0.2627
     15 C          -7.4744   -0.0752   -0.1644 C.ar    1  UNL1        0.0390
     16 C          -6.6128   -0.1022   -1.2689 C.ar    1  UNL1       -0.0393
     17 C          -5.2259   -0.0643   -1.0887 C.ar    1  UNL1       -0.0477
     18 C          -4.6711    0.0057    0.1986 C.ar    1  UNL1        0.0370
     19 C          -3.2266    0.0487    0.4158 C.ar    1  UNL1        0.2284
     20 N          -2.5589    0.2033    1.5477 N.ar    1  UNL1       -0.2089
     21 C          -1.2430    0.1600    1.1649 C.ar    1  UNL1        0.1121
     22 C          -0.0569    0.2679    1.9010 C.ar    1  UNL1       -0.0034
     23 C           1.1715    0.1829    1.2343 C.ar    1  UNL1        0.1121
     24 N           2.4623    0.2591    1.6907 N.ar    1  UNL1       -0.2089
     25 C           3.1970    0.1046    0.6010 C.ar    1  UNL1        0.2284
     26 C           4.6521    0.1023    0.4661 C.ar    1  UNL1        0.0370
     27 C           5.2832   -0.1847   -0.7542 C.ar    1  UNL1       -0.0477
     28 C           6.6782   -0.1791   -0.8568 C.ar    1  UNL1       -0.0393
     29 C           7.4719    0.1183    0.2592 C.ar    1  UNL1        0.0390
     30 N           8.8958    0.1294    0.1534 N.pl3   1  UNL1       -0.2627
     31 C           9.5882    1.2174   -0.4762 C.ar    1  UNL1        0.0813
     32 C           8.9292    2.3376   -1.0142 C.ar    1  UNL1       -0.0364
     33 C           9.6454    3.3748   -1.6230 C.ar    1  UNL1       -0.0598
     34 C          11.0343    3.3166   -1.6986 C.ar    1  UNL1       -0.0582
     35 C          11.7080    2.2238   -1.1598 C.ar    1  UNL1       -0.0175
     36 C          10.9909    1.1871   -0.5526 C.ar    1  UNL1        0.1501
     37 O          11.7509    0.1623   -0.0361 O.3     1  UNL1       -0.4523
     38 C          11.0901   -0.8816    0.5694 C.ar    1  UNL1        0.1501
     39 C          11.9046   -1.9025    1.0726 C.ar    1  UNL1       -0.0175
     40 C          11.3322   -3.0123    1.6887 C.ar    1  UNL1       -0.0582
     41 C           9.9469   -3.1031    1.7947 C.ar    1  UNL1       -0.0598
     42 C           9.1340   -2.0805    1.2920 C.ar    1  UNL1       -0.0364
     43 C           9.6908   -0.9438    0.6791 C.ar    1  UNL1        0.0813
     44 C           6.8469    0.4044    1.4802 C.ar    1  UNL1       -0.0393
     45 C           5.4521    0.3936    1.5816 C.ar    1  UNL1       -0.0477
     46 O           2.4717   -0.0662   -0.5545 O.2     1  UNL1       -0.4352
     47 C           1.1772   -0.0109   -0.1396 C.ar    1  UNL1        0.1593
     48 C           0.0276   -0.1201   -0.9036 C.ar    1  UNL1        0.0274
     49 C          -1.1659   -0.0263   -0.2079 C.ar    1  UNL1        0.1593
     50 O          -2.4331   -0.0962   -0.6977 O.2     1  UNL1       -0.4352
     51 C          -5.5391    0.0381    1.3005 C.ar    1  UNL1       -0.0477
     52 C          -6.9255   -0.0045    1.1225 C.ar    1  UNL1       -0.0393
     53 H         -12.0114    4.1862    0.2167 H       1  UNL1        0.0619
     54 H          -9.5548    4.4035    0.5033 H       1  UNL1        0.0618
     55 H          -8.0932    2.4566    0.2396 H       1  UNL1        0.0637
     56 H         -12.9935    1.9778   -0.3525 H       1  UNL1        0.0655
     57 H         -12.7299   -2.4767   -1.3205 H       1  UNL1        0.0655
     58 H         -11.4983   -4.6110   -1.6281 H       1  UNL1        0.0619
     59 H          -9.0355   -4.6687   -1.3151 H       1  UNL1        0.0618
     60 H          -7.8103   -2.6360   -0.7153 H       1  UNL1        0.0637
     61 H          -7.0261   -0.1518   -2.2740 H       1  UNL1        0.0636
     62 H          -4.5850   -0.0871   -1.9678 H       1  UNL1        0.0626
     63 H          -0.0895    0.4165    2.9748 H       1  UNL1        0.0662
     64 H           4.6960   -0.4183   -1.6402 H       1  UNL1        0.0626
     65 H           7.1504   -0.4090   -1.8097 H       1  UNL1        0.0636
     66 H           7.8472    2.4272   -0.9658 H       1  UNL1        0.0637
     67 H           9.1138    4.2299   -2.0343 H       1  UNL1        0.0618
     68 H          11.5915    4.1219   -2.1702 H       1  UNL1        0.0619
     69 H          12.7930    2.1763   -1.2073 H       1  UNL1        0.0655
     70 H          12.9853   -1.8292    0.9810 H       1  UNL1        0.0655
     71 H          11.9644   -3.8045    2.0816 H       1  UNL1        0.0619
     72 H           9.4934   -3.9703    2.2683 H       1  UNL1        0.0618
     73 H           8.0572   -2.1943    1.3849 H       1  UNL1        0.0637
     74 H           7.4499    0.6397    2.3545 H       1  UNL1        0.0636
     75 H           4.9892    0.6192    2.5416 H       1  UNL1        0.0626
     76 H           0.0606   -0.2702   -1.9750 H       1  UNL1        0.0693
     77 H          -5.1371    0.0947    2.3114 H       1  UNL1        0.0626
     78 H          -7.5813    0.0130    1.9901 H       1  UNL1        0.0636
@<TRIPOS>BOND
     1     1     2   ar
     2     2     3   ar
     3     3     4   ar
     4     4     5   ar
     5     5     6   ar
     6     5     7    1
     7     7     8    1
     8     8     9   ar
     9     9    10   ar
    10    10    11   ar
    11    11    12   ar
    12    12    13   ar
    13    13    14    1
    14    14    15    1
    15    15    16   ar
    16    16    17   ar
    17    17    18   ar
    18    18    19    1
    19    19    20   ar
    20    20    21   ar
    21    21    22   ar
    22    22    23   ar
    23    23    24   ar
    24    24    25   ar
    25    25    26    1
    26    26    27   ar
    27    27    28   ar
    28    28    29   ar
    29    29    30    1
    30    30    31    1
    31    31    32   ar
    32    32    33   ar
    33    33    34   ar
    34    34    35   ar
    35    35    36   ar
    36    36    37    1
    37    37    38    1
    38    38    39   ar
    39    39    40   ar
    40    40    41   ar
    41    41    42   ar
    42    42    43   ar
    43    29    44   ar
    44    44    45   ar
    45    25    46   ar
    46    46    47   ar
    47    47    48   ar
    48    48    49   ar
    49    49    50   ar
    50    18    51   ar
    51    51    52   ar
    52     6     1   ar
    53    13     8   ar
    54    52    15   ar
    55    14     4    1
    56    50    19   ar
    57    49    21   ar
    58    47    23   ar
    59    45    26   ar
    60    43    30    1
    61    36    31   ar
    62    43    38   ar
    63     1    53    1
    64     2    54    1
    65     3    55    1
    66     6    56    1
    67     9    57    1
    68    10    58    1
    69    11    59    1
    70    12    60    1
    71    16    61    1
    72    17    62    1
    73    22    63    1
    74    27    64    1
    75    28    65    1
    76    32    66    1
    77    33    67    1
    78    34    68    1
    79    35    69    1
    80    39    70    1
    81    40    71    1
    82    41    72    1
    83    42    73    1
    84    44    74    1
    85    45    75    1
    86    48    76    1
    87    51    77    1
    88    52    78    1
