@<TRIPOS>MOLECULE
*****
 78 88 0 0 0
SMALL
GASTEIGER

@<TRIPOS>ATOM
      1 C          11.4075   -3.6784   -0.5496 C.ar    1  UNL1       -0.0582
      2 C          10.0183   -3.7237   -0.6274 C.ar    1  UNL1       -0.0598
      3 C           9.2653   -2.5593   -0.4413 C.ar    1  UNL1       -0.0364
      4 C           9.8885   -1.3274   -0.1755 C.ar    1  UNL1        0.0813
      5 C          11.2907   -1.3060   -0.0975 C.ar    1  UNL1        0.1501
      6 C          12.0447   -2.4692   -0.2836 C.ar    1  UNL1       -0.0175
      7 O          12.0117   -0.1634    0.1638 O.3     1  UNL1       -0.4523
      8 C          11.3107    1.0049    0.3575 C.ar    1  UNL1        0.1501
      9 C          12.0850    2.1394    0.6212 C.ar    1  UNL1       -0.0175
     10 C          11.4696    3.3711    0.8284 C.ar    1  UNL1       -0.0582
     11 C          10.0821    3.4672    0.7702 C.ar    1  UNL1       -0.0598
     12 C           9.3086    2.3317    0.5058 C.ar    1  UNL1       -0.0364
     13 C           9.9094    1.0780    0.2963 C.ar    1  UNL1        0.0813
     14 N           9.1570   -0.1106    0.0216 N.pl3   1  UNL1       -0.2627
     15 C           7.7341   -0.0813   -0.0664 C.ar    1  UNL1        0.0390
     16 C           6.9478   -0.2244    1.0807 C.ar    1  UNL1       -0.0394
     17 C           5.5524   -0.1973    0.9870 C.ar    1  UNL1       -0.0503
     18 C           4.9036   -0.0282   -0.2501 C.ar    1  UNL1        0.0073
     19 C           3.4243   -0.0107   -0.2793 C.ar    1  UNL1        0.1094
     20 N           2.6720   -0.0898    0.8030 N.ar    1  UNL1       -0.2390
     21 C           1.3303   -0.0531    0.4737 C.ar    1  UNL1        0.0801
     22 C           0.2559   -0.1131    1.3703 C.ar    1  UNL1       -0.0193
     23 C          -1.0566   -0.0656    0.9007 C.ar    1  UNL1        0.0416
     24 S          -2.5368   -0.1187    1.7664 S.2     1  UNL1       -0.0671
     25 C          -3.4246    0.0023    0.2933 C.ar    1  UNL1        0.1094
     26 C          -4.9038    0.0237    0.2636 C.ar    1  UNL1        0.0073
     27 C          -5.7074   -0.1319    1.4059 C.ar    1  UNL1       -0.0503
     28 C          -7.1047   -0.1022    1.3147 C.ar    1  UNL1       -0.0394
     29 C          -7.7341    0.0826    0.0785 C.ar    1  UNL1        0.0390
     30 N          -9.1571    0.1129   -0.0111 N.pl3   1  UNL1       -0.2627
     31 C          -9.8913    1.3207    0.2277 C.ar    1  UNL1        0.0813
     32 C          -9.2712    2.5424    0.5435 C.ar    1  UNL1       -0.0364
     33 C         -10.0268    3.6982    0.7684 C.ar    1  UNL1       -0.0598
     34 C         -11.4153    3.6550    0.6796 C.ar    1  UNL1       -0.0582
     35 C         -12.0494    2.4562    0.3637 C.ar    1  UNL1       -0.0175
     36 C         -11.2929    1.3014    0.1389 C.ar    1  UNL1        0.1501
     37 O         -12.0109    0.1695   -0.1726 O.3     1  UNL1       -0.4523
     38 C         -11.3075   -0.9898   -0.4065 C.ar    1  UNL1        0.1501
     39 C         -12.0788   -2.1137   -0.7196 C.ar    1  UNL1       -0.0175
     40 C         -11.4610   -3.3368   -0.9669 C.ar    1  UNL1       -0.0582
     41 C         -10.0740   -3.4352   -0.8994 C.ar    1  UNL1       -0.0598
     42 C          -9.3036   -2.3102   -0.5863 C.ar    1  UNL1       -0.0364
     43 C          -9.9066   -1.0648   -0.3367 C.ar    1  UNL1        0.0813
     44 C          -6.9466    0.2365   -1.0666 C.ar    1  UNL1       -0.0394
     45 C          -5.5514    0.2064   -0.9723 C.ar    1  UNL1       -0.0503
     46 N          -2.6722    0.0801   -0.7889 N.ar    1  UNL1       -0.2390
     47 C          -1.3306    0.0416   -0.4594 C.ar    1  UNL1        0.0801
     48 C          -0.2563    0.1011   -1.3561 C.ar    1  UNL1       -0.0193
     49 C           1.0561    0.0539   -0.8864 C.ar    1  UNL1        0.0416
     50 S           2.5361    0.1083   -1.7523 S.2     1  UNL1       -0.0671
     51 C           5.7062    0.1168   -1.3942 C.ar    1  UNL1       -0.0503
     52 C           7.1036    0.0901   -1.3040 C.ar    1  UNL1       -0.0394
     53 H          11.9927   -4.5828   -0.6938 H       1  UNL1        0.0619
     54 H           9.5152   -4.6656   -0.8319 H       1  UNL1        0.0618
     55 H           8.1832   -2.6349   -0.5053 H       1  UNL1        0.0637
     56 H          13.1285   -2.4283   -0.2192 H       1  UNL1        0.0655
     57 H          13.1676    2.0584    0.6637 H       1  UNL1        0.0655
     58 H          12.0705    4.2531    1.0339 H       1  UNL1        0.0619
     59 H           9.5961    4.4264    0.9303 H       1  UNL1        0.0618
     60 H           8.2288    2.4467    0.4669 H       1  UNL1        0.0637
     61 H           7.4219   -0.3594    2.0500 H       1  UNL1        0.0636
     62 H           4.9664   -0.3126    1.8985 H       1  UNL1        0.0625
     63 H           0.4608   -0.1965    2.4340 H       1  UNL1        0.0651
     64 H          -5.2721   -0.2819    2.3905 H       1  UNL1        0.0625
     65 H          -7.7072   -0.2260    2.2119 H       1  UNL1        0.0636
     66 H          -8.1896    2.6168    0.6171 H       1  UNL1        0.0637
     67 H          -9.5260    4.6321    1.0115 H       1  UNL1        0.0618
     68 H         -12.0024    4.5530    0.8535 H       1  UNL1        0.0619
     69 H         -13.1327    2.4169    0.2903 H       1  UNL1        0.0655
     70 H         -13.1611   -2.0313   -0.7683 H       1  UNL1        0.0655
     71 H         -12.0596   -4.2109   -1.2094 H       1  UNL1        0.0619
     72 H          -9.5862   -4.3881   -1.0896 H       1  UNL1        0.0618
     73 H          -8.2243   -2.4270   -0.5398 H       1  UNL1        0.0637
     74 H          -7.4201    0.3820   -2.0348 H       1  UNL1        0.0636
     75 H          -4.9645    0.3289   -1.8821 H       1  UNL1        0.0625
     76 H          -0.4615    0.1849   -2.4199 H       1  UNL1        0.0651
     77 H           5.2700    0.2549   -2.3802 H       1  UNL1        0.0625
     78 H           7.7052    0.2044   -2.2030 H       1  UNL1        0.0636
@<TRIPOS>BOND
     1     1     2   ar
     2     2     3   ar
     3     3     4   ar
     4     4     5   ar
     5     5     6   ar
     6     5     7    1
     7     7     8    1
     8     8     9   ar
     9     9    10   ar
    10    10    11   ar
    11    11    12   ar
    12    12    13   ar
    13    13    14    1
    14    14    15    1
    15    15    16   ar
    16    16    17   ar
    17    17    18   ar
    18    18    19    1
    19    19    20   ar
    20    20    21   ar
    21    21    22   ar
    22    22    23   ar
    23    23    24   ar
    24    24    25   ar
    25    25    26    1
    26    26    27   ar
    27    27    28   ar
    28    28    29   ar
    29    29    30    1
    30    30    31    1
    31    31    32   ar
    32    32    33   ar
    33    33    34   ar
    34    34    35   ar
    35    35    36   ar
    36    36    37    1
    37    37    38    1
    38    38    39   ar
    39    39    40   ar
    40    40    41   ar
    41    41    42   ar
    42    42    43   ar
    43    29    44   ar
    44    44    45   ar
    45    25    46   ar
    46    46    47   ar
    47    47    48   ar
    48    48    49   ar
    49    49    50   ar
    50    18    51   ar
    51    51    52   ar
    52     6     1   ar
    53    13     8   ar
    54    52    15   ar
    55    14     4    1
    56    50    19   ar
    57    49    21   ar
    58    47    23   ar
    59    45    26   ar
    60    43    30    1
    61    36    31   ar
    62    43    38   ar
    63     1    53    1
    64     2    54    1
    65     3    55    1
    66     6    56    1
    67     9    57    1
    68    10    58    1
    69    11    59    1
    70    12    60    1
    71    16    61    1
    72    17    62    1
    73    22    63    1
    74    27    64    1
    75    28    65    1
    76    32    66    1
    77    33    67    1
    78    34    68    1
    79    35    69    1
    80    39    70    1
    81    40    71    1
    82    41    72    1
    83    42    73    1
    84    44    74    1
    85    45    75    1
    86    48    76    1
    87    51    77    1
    88    52    78    1
