@<TRIPOS>MOLECULE
*****
 70 79 0 0 0
SMALL
GASTEIGER

@<TRIPOS>ATOM
      1 C           7.2667   -3.5440    1.0987 C.ar    1  UNL1       -0.0582
      2 C           5.8765   -3.6002    1.1400 C.ar    1  UNL1       -0.0598
      3 C           5.1146   -2.5322    0.6539 C.ar    1  UNL1       -0.0364
      4 C           5.7296   -1.3887    0.1141 C.ar    1  UNL1        0.0813
      5 C           7.1334   -1.3504    0.0902 C.ar    1  UNL1        0.1501
      6 C           7.8963   -2.4178    0.5749 C.ar    1  UNL1       -0.0175
      7 O           7.8481   -0.2801   -0.3972 O.3     1  UNL1       -0.4523
      8 C           7.1390    0.7992   -0.8724 C.ar    1  UNL1        0.1501
      9 C           7.9077    1.8658   -1.3499 C.ar    1  UNL1       -0.0175
     10 C           7.2845    3.0016   -1.8601 C.ar    1  UNL1       -0.0582
     11 C           5.8945    3.0684   -1.8944 C.ar    1  UNL1       -0.0598
     12 C           5.1268    2.0006   -1.4169 C.ar    1  UNL1       -0.0364
     13 C           5.7353    0.8466   -0.8927 C.ar    1  UNL1        0.0813
     14 N           4.9887   -0.2716   -0.3946 N.pl3   1  UNL1       -0.2627
     15 C           3.5633   -0.2764   -0.4129 C.ar    1  UNL1        0.0397
     16 C           2.8697   -0.9126   -1.4348 C.ar    1  UNL1       -0.0394
     17 C           1.4730   -0.9093   -1.4393 C.ar    1  UNL1       -0.0516
     18 C           0.7073   -0.2721   -0.4266 C.ar    1  UNL1       -0.0079
     19 C          -0.7229   -0.2555   -0.4103 C.ar    1  UNL1       -0.0079
     20 C          -1.5256   -0.8761   -1.4042 C.ar    1  UNL1       -0.0516
     21 C          -2.9215   -0.8464   -1.3683 C.ar    1  UNL1       -0.0394
     22 C          -3.5771   -0.1919   -0.3329 C.ar    1  UNL1        0.0397
     23 N          -5.0013   -0.1526   -0.2840 N.pl3   1  UNL1       -0.2627
     24 C          -5.7452    0.8030   -1.0515 C.ar    1  UNL1        0.0813
     25 C          -5.1333    1.7832   -1.8527 C.ar    1  UNL1       -0.0364
     26 C          -5.8979    2.6967   -2.5865 C.ar    1  UNL1       -0.0598
     27 C          -7.2879    2.6498   -2.5306 C.ar    1  UNL1       -0.0582
     28 C          -7.9143    1.6920   -1.7374 C.ar    1  UNL1       -0.0175
     29 C          -7.1487    0.7800   -1.0034 C.ar    1  UNL1        0.1501
     30 O          -7.8603   -0.1204   -0.2441 O.3     1  UNL1       -0.4523
     31 C          -7.1479   -1.0294    0.5043 C.ar    1  UNL1        0.1501
     32 C          -7.9133   -1.9195    1.2646 C.ar    1  UNL1       -0.0175
     33 C          -7.2867   -2.8835    2.0499 C.ar    1  UNL1       -0.0582
     34 C          -5.8968   -2.9576    2.0724 C.ar    1  UNL1       -0.0598
     35 C          -5.1324   -2.0671    1.3109 C.ar    1  UNL1       -0.0364
     36 C          -5.7443   -1.0832    0.5144 C.ar    1  UNL1        0.0813
     37 C          -2.8095    0.4271    0.6586 C.ar    1  UNL1       -0.0302
     38 C          -1.3940    0.4111    0.6464 C.ar    1  UNL1        0.0119
     39 C          -0.6766    1.0502    1.6717 C.ar    1  UNL1        0.0975
     40 N          -1.3409    1.6823    2.6762 N.ar    1  UNL1       -0.2513
     41 C          -0.6169    2.2829    3.6394 C.ar    1  UNL1        0.0464
     42 C           0.7527    2.2674    3.6235 C.ar    1  UNL1        0.0464
     43 N           1.4402    1.6506    2.6440 N.ar    1  UNL1       -0.2513
     44 C           0.7387    1.0335    1.6557 C.ar    1  UNL1        0.0975
     45 C           1.4174    0.3774    0.6150 C.ar    1  UNL1        0.0119
     46 C           2.8327    0.3584    0.5964 C.ar    1  UNL1       -0.0302
     47 H           7.8588   -4.3729    1.4775 H       1  UNL1        0.0619
     48 H           5.3793   -4.4741    1.5540 H       1  UNL1        0.0618
     49 H           4.0324   -2.6092    0.7117 H       1  UNL1        0.0637
     50 H           8.9811   -2.3658    0.5447 H       1  UNL1        0.0655
     51 H           8.9922    1.8063   -1.3228 H       1  UNL1        0.0655
     52 H           7.8808    3.8311   -2.2306 H       1  UNL1        0.0619
     53 H           5.4018    3.9518   -2.2927 H       1  UNL1        0.0618
     54 H           4.0449    2.0897   -1.4628 H       1  UNL1        0.0637
     55 H           3.4148   -1.4114   -2.2326 H       1  UNL1        0.0636
     56 H           0.9947   -1.4246   -2.2676 H       1  UNL1        0.0624
     57 H          -1.0784   -1.4054   -2.2409 H       1  UNL1        0.0624
     58 H          -3.4960   -1.3377   -2.1499 H       1  UNL1        0.0636
     59 H          -4.0511    1.8573   -1.9150 H       1  UNL1        0.0637
     60 H          -5.4029    3.4463   -3.1990 H       1  UNL1        0.0618
     61 H          -7.8821    3.3597   -3.0999 H       1  UNL1        0.0619
     62 H          -8.9989    1.6535   -1.6857 H       1  UNL1        0.0655
     63 H          -8.9979   -1.8581    1.2408 H       1  UNL1        0.0655
     64 H          -7.8804   -3.5753    2.6413 H       1  UNL1        0.0619
     65 H          -5.4018   -3.7087    2.6830 H       1  UNL1        0.0618
     66 H          -4.0505   -2.1580    1.3534 H       1  UNL1        0.0637
     67 H          -3.3382    0.9394    1.4636 H       1  UNL1        0.0643
     68 H          -1.1771    2.7772    4.4238 H       1  UNL1        0.0845
     69 H           1.3421    2.7484    4.3946 H       1  UNL1        0.0845
     70 H           3.3910    0.8511    1.3935 H       1  UNL1        0.0643
@<TRIPOS>BOND
     1     1     2   ar
     2     2     3   ar
     3     3     4   ar
     4     4     5   ar
     5     5     6   ar
     6     5     7    1
     7     7     8    1
     8     8     9   ar
     9     9    10   ar
    10    10    11   ar
    11    11    12   ar
    12    12    13   ar
    13    13    14    1
    14    14    15    1
    15    15    16   ar
    16    16    17   ar
    17    17    18   ar
    18    18    19   ar
    19    19    20   ar
    20    20    21   ar
    21    21    22   ar
    22    22    23    1
    23    23    24    1
    24    24    25   ar
    25    25    26   ar
    26    26    27   ar
    27    27    28   ar
    28    28    29   ar
    29    29    30    1
    30    30    31    1
    31    31    32   ar
    32    32    33   ar
    33    33    34   ar
    34    34    35   ar
    35    35    36   ar
    36    22    37   ar
    37    37    38   ar
    38    38    39   ar
    39    39    40   ar
    40    40    41   ar
    41    41    42   ar
    42    42    43   ar
    43    43    44   ar
    44    44    45   ar
    45    45    46   ar
    46     6     1   ar
    47    13     8   ar
    48    46    15   ar
    49    14     4    1
    50    45    18   ar
    51    38    19   ar
    52    44    39   ar
    53    36    23    1
    54    29    24   ar
    55    36    31   ar
    56     1    47    1
    57     2    48    1
    58     3    49    1
    59     6    50    1
    60     9    51    1
    61    10    52    1
    62    11    53    1
    63    12    54    1
    64    16    55    1
    65    17    56    1
    66    20    57    1
    67    21    58    1
    68    25    59    1
    69    26    60    1
    70    27    61    1
    71    28    62    1
    72    32    63    1
    73    33    64    1
    74    34    65    1
    75    35    66    1
    76    37    67    1
    77    41    68    1
    78    42    69    1
    79    46    70    1
