@<TRIPOS>MOLECULE
*****
 26 29 0 0 0
SMALL
GASTEIGER

@<TRIPOS>ATOM
      1 C          -4.3919   -0.8571    0.2716 C.ar    1  UNL1       -0.0581
      2 C          -3.7068   -1.8733   -0.3974 C.ar    1  UNL1       -0.0581
      3 C          -2.3278   -1.7776   -0.5919 C.ar    1  UNL1       -0.0163
      4 C          -1.6375   -0.6637   -0.1187 C.ar    1  UNL1        0.1631
      5 C          -2.3199    0.3416    0.5763 C.ar    1  UNL1        0.1621
      6 C          -3.6982    0.2523    0.7579 C.ar    1  UNL1       -0.0163
      7 O          -1.6980    1.4482    1.0978 O.3     1  UNL1       -0.4842
      8 C          -0.2780    1.2594    1.1645 C.3     1  UNL1        0.1327
      9 C           0.2378    0.6929   -0.1507 C.3     1  UNL1        0.1836
     10 C           1.7413    0.5648   -0.1404 C.ar    1  UNL1        0.1461
     11 N           2.4775    0.4191    0.9324 N.ar    1  UNL1       -0.1569
     12 N           3.7524    0.3109    0.4802 N.ar    1  UNL1       -0.1933
     13 C           4.9575    0.1480    1.0835 C.ar    1  UNL1        0.1426
     14 N           5.9016    0.1169    0.1565 N.ar    1  UNL1       -0.1351
     15 N           5.2915    0.2614   -1.0903 N.ar    1  UNL1       -0.1206
     16 C           4.0176    0.3693   -0.8440 C.ar    1  UNL1        0.2178
     17 S           2.5737    0.5791   -1.7267 S.2     1  UNL1       -0.0274
     18 O          -0.2883   -0.6230   -0.3653 O.3     1  UNL1       -0.4750
     19 H          -5.4666   -0.9317    0.4186 H       1  UNL1        0.0619
     20 H          -4.2485   -2.7388   -0.7712 H       1  UNL1        0.0619
     21 H          -1.7972   -2.5650   -1.1200 H       1  UNL1        0.0655
     22 H          -4.2298    1.0386    1.2866 H       1  UNL1        0.0655
     23 H           0.1746    2.2351    1.3724 H       1  UNL1        0.0738
     24 H          -0.0585    0.6016    2.0159 H       1  UNL1        0.0738
     25 H          -0.0689    1.3288   -0.9920 H       1  UNL1        0.0841
     26 H           5.0903    0.0623    2.1507 H       1  UNL1        0.1067
@<TRIPOS>BOND
     1     1     2   ar
     2     2     3   ar
     3     3     4   ar
     4     4     5   ar
     5     5     6   ar
     6     5     7    1
     7     7     8    1
     8     8     9    1
     9     9    10    1
    10    10    11   ar
    11    11    12   ar
    12    12    13   ar
    13    13    14   ar
    14    14    15   ar
    15    15    16   ar
    16    16    17   ar
    17     9    18    1
    18     6     1   ar
    19    17    10   ar
    20    18     4    1
    21    16    12   ar
    22     1    19    1
    23     2    20    1
    24     3    21    1
    25     6    22    1
    26     8    23    1
    27     8    24    1
    28     9    25    1
    29    13    26    1
