@<TRIPOS>MOLECULE
*****
 47 52 0 0 0
SMALL
GASTEIGER

@<TRIPOS>ATOM
      1 C           8.0869    0.3545    0.7059 C.ar    1  UNL1       -0.0607
      2 C           7.7596   -0.9148    0.2538 C.ar    1  UNL1       -0.0611
      3 C           6.4221   -1.2627    0.0419 C.ar    1  UNL1       -0.0529
      4 C           5.3802   -0.3287    0.2838 C.ar    1  UNL1       -0.0031
      5 C           5.7404    0.9405    0.7381 C.ar    1  UNL1        0.0205
      6 C           7.0872    1.2967    0.9537 C.ar    1  UNL1       -0.0474
      7 S           4.3645    1.9361    0.9773 S.2     1  UNL1       -0.0882
      8 C           3.2721    0.7091    0.4842 C.ar    1  UNL1        0.0211
      9 C           1.8659    0.8093    0.4173 C.ar    1  UNL1       -0.0397
     10 C           1.0997   -0.2896   -0.0060 C.ar    1  UNL1       -0.0168
     11 C          -0.3675   -0.1981   -0.0799 C.ar    1  UNL1       -0.0172
     12 C          -1.1852   -1.1121    0.5959 C.ar    1  UNL1       -0.0491
     13 C          -2.5888   -1.0328    0.5310 C.ar    1  UNL1       -0.0255
     14 C          -3.2146   -0.0065   -0.2048 C.ar    1  UNL1        0.0361
     15 C          -2.3955    0.9013   -0.9057 C.ar    1  UNL1       -0.0255
     16 C          -0.9936    0.8068   -0.8274 C.ar    1  UNL1       -0.0491
     17 C          -2.9953    2.0272   -1.7104 C.3     1  UNL1       -0.0245
     18 C          -4.4652    1.7869   -2.0188 C.3     1  UNL1       -0.0332
     19 C          -5.1772    1.3363   -0.7542 C.3     1  UNL1        0.0125
     20 N          -4.6131    0.0710   -0.2884 N.pl3   1  UNL1       -0.3294
     21 C          -5.3759   -0.6513    0.7278 C.3     1  UNL1        0.0125
     22 C          -4.8516   -2.0717    0.8572 C.3     1  UNL1       -0.0332
     23 C          -3.4014   -2.0332    1.3143 C.3     1  UNL1       -0.0245
     24 C           1.7632   -1.4680   -0.3549 C.ar    1  UNL1       -0.0534
     25 C           3.1590   -1.5644   -0.2890 C.ar    1  UNL1       -0.0524
     26 C           3.9422   -0.4627    0.1374 C.ar    1  UNL1       -0.0031
     27 H           9.1286    0.6205    0.8693 H       1  UNL1        0.0618
     28 H           8.5435   -1.6436    0.0628 H       1  UNL1        0.0618
     29 H           6.1823   -2.2619   -0.3128 H       1  UNL1        0.0624
     30 H           7.3456    2.2908    1.3079 H       1  UNL1        0.0629
     31 H           1.3790    1.7379    0.7068 H       1  UNL1        0.0635
     32 H          -0.7279   -1.8968    1.1964 H       1  UNL1        0.0627
     33 H          -0.3846    1.5267   -1.3720 H       1  UNL1        0.0627
     34 H          -2.4490    2.1516   -2.6528 H       1  UNL1        0.0314
     35 H          -2.8865    2.9555   -1.1358 H       1  UNL1        0.0314
     36 H          -4.5619    1.0155   -2.7939 H       1  UNL1        0.0283
     37 H          -4.9201    2.7026   -2.4117 H       1  UNL1        0.0283
     38 H          -5.1022    2.0987    0.0318 H       1  UNL1        0.0464
     39 H          -6.2422    1.2040   -0.9785 H       1  UNL1        0.0464
     40 H          -5.3236   -0.1241    1.6891 H       1  UNL1        0.0464
     41 H          -6.4319   -0.6916    0.4358 H       1  UNL1        0.0464
     42 H          -5.4548   -2.6413    1.5724 H       1  UNL1        0.0283
     43 H          -4.9235   -2.5834   -0.1113 H       1  UNL1        0.0283
     44 H          -3.3568   -1.7564    2.3751 H       1  UNL1        0.0314
     45 H          -2.9686   -3.0353    1.2119 H       1  UNL1        0.0314
     46 H           1.1961   -2.3317   -0.6983 H       1  UNL1        0.0624
     47 H           3.6405   -2.4968   -0.5725 H       1  UNL1        0.0624
@<TRIPOS>BOND
     1     1     2   ar
     2     2     3   ar
     3     3     4   ar
     4     4     5   ar
     5     5     6   ar
     6     5     7   ar
     7     7     8   ar
     8     8     9   ar
     9     9    10   ar
    10    10    11    1
    11    11    12   ar
    12    12    13   ar
    13    13    14   ar
    14    14    15   ar
    15    15    16   ar
    16    15    17    1
    17    17    18    1
    18    18    19    1
    19    19    20    1
    20    20    21    1
    21    21    22    1
    22    22    23    1
    23    10    24   ar
    24    24    25   ar
    25    25    26   ar
    26     6     1   ar
    27    26     8   ar
    28    26     4   ar
    29    16    11   ar
    30    23    13    1
    31    20    14    1
    32     1    27    1
    33     2    28    1
    34     3    29    1
    35     6    30    1
    36     9    31    1
    37    12    32    1
    38    16    33    1
    39    17    34    1
    40    17    35    1
    41    18    36    1
    42    18    37    1
    43    19    38    1
    44    19    39    1
    45    21    40    1
    46    21    41    1
    47    22    42    1
    48    22    43    1
    49    23    44    1
    50    23    45    1
    51    24    46    1
    52    25    47    1
