@<TRIPOS>MOLECULE
*****
 45 52 0 0 0
SMALL
GASTEIGER

@<TRIPOS>ATOM
      1 SI          3.3406   -3.7283    0.7698 Si      1  UNL1        0.0000
      2 C           4.3643   -2.2681    0.2385 C.2     1  UNL1        0.0000
      3 C           3.6079   -1.1812   -0.0385 C.ar    1  UNL1        0.0000
      4 C           4.1458    0.1266   -0.4847 C.ar    1  UNL1        0.0000
      5 C           5.5584    0.2890   -0.6451 C.ar    1  UNL1        0.0000
      6 C           6.1769    1.4717   -1.0588 C.ar    1  UNL1        0.0000
      7 C           5.3092    2.5426   -1.3221 C.ar    1  UNL1        0.0000
      8 N           5.7152    3.7550   -1.7284 N.ar    1  UNL1        0.0000
      9 S           4.3536    4.6709   -1.9052 S.2     1  UNL1        0.0000
     10 N           3.1993    3.5732   -1.4760 N.ar    1  UNL1        0.0000
     11 C           3.8042    2.4108   -1.1640 C.ar    1  UNL1        0.0000
     12 C           3.1953    1.1728   -0.7339 C.ar    1  UNL1        0.0000
     13 C           1.7132    0.9698   -0.5557 C.ar    1  UNL1        0.0000
     14 C           0.7889    1.9996   -0.8020 C.ar    1  UNL1        0.0000
     15 C          -0.5827    1.8320   -0.6433 C.ar    1  UNL1        0.0000
     16 C          -1.1018    0.6138   -0.2263 C.ar    1  UNL1        0.0000
     17 C          -2.4970    0.4780   -0.0756 C.ar    1  UNL1        0.0000
     18 C          -3.0774   -0.7175    0.3392 C.ar    1  UNL1        0.0000
     19 C          -2.1694   -1.7339    0.5827 C.ar    1  UNL1        0.0000
     20 N          -0.8206   -1.6290    0.4451 N.ar    1  UNL1        0.0000
     21 C          -0.2464   -0.4704    0.0422 C.ar    1  UNL1        0.0000
     22 C           1.1679   -0.2869   -0.1247 C.ar    1  UNL1        0.0000
     23 C           2.1512   -1.3911    0.1400 C.ar    1  UNL1        0.0000
     24 C           1.8554   -2.6454    0.5509 C.2     1  UNL1        0.0000
     25 C          -4.5358   -0.8682    0.4994 C.ar    1  UNL1        0.0000
     26 S          -5.2380   -2.3955    1.0264 S.2     1  UNL1        0.0000
     27 C          -6.8634   -1.8262    0.9769 C.ar    1  UNL1        0.0000
     28 C          -6.8285   -0.5453    0.5782 C.ar    1  UNL1        0.0000
     29 O          -7.9109    0.2620    0.4129 O.2     1  UNL1        0.0000
     30 C          -7.2771    1.4174    0.0062 C.ar    1  UNL1        0.0000
     31 C          -5.8830    1.3083   -0.0686 C.ar    1  UNL1        0.0000
     32 C          -5.5840   -0.0177    0.3181 C.ar    1  UNL1        0.0000
     33 H           3.4081   -4.8407   -0.2085 H       1  UNL1        0.0000
     34 H           3.5945   -4.1015    2.1824 H       1  UNL1        0.0000
     35 H           5.4328   -2.3854    0.1915 H       1  UNL1        0.0000
     36 H           6.2296   -0.5431   -0.4402 H       1  UNL1        0.0000
     37 H           7.2504    1.5598   -1.1698 H       1  UNL1        0.0000
     38 H           1.0913    2.9864   -1.1307 H       1  UNL1        0.0000
     39 H          -1.2350    2.6774   -0.8539 H       1  UNL1        0.0000
     40 H          -3.1218    1.3374   -0.2926 H       1  UNL1        0.0000
     41 H          -2.4786   -2.7218    0.9121 H       1  UNL1        0.0000
     42 H           0.8909   -3.0739    0.7586 H       1  UNL1        0.0000
     43 H          -7.7241   -2.4278    1.2300 H       1  UNL1        0.0000
     44 H          -7.9511    2.2399   -0.1956 H       1  UNL1        0.0000
     45 H          -5.2181    2.1045   -0.3666 H       1  UNL1        0.0000
@<TRIPOS>BOND
     1     1     2    1
     2     2     3    2
     3     3     4   ar
     4     4     5   ar
     5     5     6   ar
     6     6     7   ar
     7     7     8   ar
     8     8     9   ar
     9     9    10   ar
    10    10    11   ar
    11    11    12   ar
    12    12    13   ar
    13    13    14   ar
    14    14    15   ar
    15    15    16   ar
    16    16    17   ar
    17    17    18   ar
    18    18    19   ar
    19    19    20   ar
    20    20    21   ar
    21    21    22   ar
    22    22    23   ar
    23    23    24    2
    24    18    25    1
    25    25    26   ar
    26    26    27   ar
    27    27    28   ar
    28    28    29   ar
    29    29    30   ar
    30    30    31   ar
    31    31    32   ar
    32    24     1    1
    33    32    25   ar
    34    23     3   ar
    35    32    28   ar
    36    12     4   ar
    37    22    13   ar
    38    11     7   ar
    39    21    16   ar
    40     1    33    1
    41     1    34    1
    42     2    35    1
    43     5    36    1
    44     6    37    1
    45    14    38    1
    46    15    39    1
    47    17    40    1
    48    19    41    1
    49    24    42    1
    50    27    43    1
    51    30    44    1
    52    31    45    1
