@<TRIPOS>MOLECULE
*****
 38 43 0 0 0
SMALL
GASTEIGER

@<TRIPOS>ATOM
      1 C          -7.3430   -0.3656   -0.7058 C.ar    1  UNL1       -0.0607
      2 C          -7.0178   -0.4973    0.6356 C.ar    1  UNL1       -0.0611
      3 C          -5.6805   -0.4608    1.0421 C.ar    1  UNL1       -0.0529
      4 C          -4.6367   -0.2892    0.0947 C.ar    1  UNL1       -0.0031
      5 C          -4.9949   -0.1594   -1.2476 C.ar    1  UNL1        0.0205
      6 C          -6.3414   -0.1955   -1.6630 C.ar    1  UNL1       -0.0474
      7 S          -3.6167    0.0390   -2.2490 S.2     1  UNL1       -0.0882
      8 C          -2.5261   -0.0432   -0.9272 C.ar    1  UNL1        0.0211
      9 C          -1.1176    0.0505   -0.9878 C.ar    1  UNL1       -0.0383
     10 C          -0.3485   -0.0346    0.1841 C.ar    1  UNL1       -0.0006
     11 C           1.1212    0.0644    0.1108 C.ar    1  UNL1        0.0475
     12 C           1.9625    0.2399   -0.9806 C.ar    1  UNL1       -0.0287
     13 C           3.3109    0.2723   -0.5321 C.ar    1  UNL1        0.0010
     14 C           4.5560    0.4212   -1.1685 C.ar    1  UNL1       -0.0418
     15 C           5.7406    0.4095   -0.4194 C.ar    1  UNL1        0.0208
     16 C           7.1281    0.5264   -0.6955 C.ar    1  UNL1       -0.0161
     17 C           7.7753    0.4292    0.5158 C.ar    1  UNL1        0.0931
     18 O           6.8813    0.2597    1.5259 O.2     1  UNL1       -0.4629
     19 C           5.6459    0.2479    0.9565 C.ar    1  UNL1        0.1368
     20 C           4.4368    0.0984    1.6177 C.ar    1  UNL1        0.0051
     21 C           3.2743    0.1137    0.8495 C.ar    1  UNL1        0.0505
     22 N           1.9545   -0.0087    1.2104 N.ar    1  UNL1       -0.3540
     23 C          -1.0164   -0.2131    1.3972 C.ar    1  UNL1       -0.0520
     24 C          -2.4151   -0.3060    1.4551 C.ar    1  UNL1       -0.0523
     25 C          -3.1987   -0.2213    0.2788 C.ar    1  UNL1       -0.0031
     26 H          -8.3846   -0.3947   -1.0172 H       1  UNL1        0.0618
     27 H          -7.8034   -0.6296    1.3755 H       1  UNL1        0.0618
     28 H          -5.4429   -0.5656    2.0976 H       1  UNL1        0.0624
     29 H          -6.5983   -0.0924   -2.7137 H       1  UNL1        0.0629
     30 H          -0.6457    0.1892   -1.9559 H       1  UNL1        0.0635
     31 H           1.6490    0.3372   -2.0115 H       1  UNL1        0.0645
     32 H           4.5977    0.5459   -2.2469 H       1  UNL1        0.0631
     33 H           7.5976    0.6645   -1.6586 H       1  UNL1        0.0655
     34 H           8.8138    0.4595    0.8143 H       1  UNL1        0.1029
     35 H           4.4100   -0.0252    2.6947 H       1  UNL1        0.0675
     36 H           1.6492   -0.1354    2.1630 H       1  UNL1        0.1659
     37 H          -0.4775   -0.2862    2.3368 H       1  UNL1        0.0624
     38 H          -2.8987   -0.4449    2.4190 H       1  UNL1        0.0624
@<TRIPOS>BOND
     1     1     2   ar
     2     2     3   ar
     3     3     4   ar
     4     4     5   ar
     5     5     6   ar
     6     5     7   ar
     7     7     8   ar
     8     8     9   ar
     9     9    10   ar
    10    10    11    1
    11    11    12   ar
    12    12    13   ar
    13    13    14   ar
    14    14    15   ar
    15    15    16   ar
    16    16    17   ar
    17    17    18   ar
    18    18    19   ar
    19    19    20   ar
    20    20    21   ar
    21    21    22   ar
    22    10    23   ar
    23    23    24   ar
    24    24    25   ar
    25     6     1   ar
    26    25     8   ar
    27    25     4   ar
    28    22    11   ar
    29    21    13   ar
    30    19    15   ar
    31     1    26    1
    32     2    27    1
    33     3    28    1
    34     6    29    1
    35     9    30    1
    36    12    31    1
    37    14    32    1
    38    16    33    1
    39    17    34    1
    40    20    35    1
    41    22    36    1
    42    23    37    1
    43    24    38    1
