@<TRIPOS>MOLECULE
*****
 37 42 0 0 0
SMALL
GASTEIGER

@<TRIPOS>ATOM
      1 C          -7.3091   -0.3060    0.3534 C.ar    1  UNL1       -0.0607
      2 C          -6.8667    0.9991    0.2001 C.ar    1  UNL1       -0.0611
      3 C          -5.4973    1.2761    0.1485 C.ar    1  UNL1       -0.0529
      4 C          -4.5396    0.2327    0.2514 C.ar    1  UNL1       -0.0031
      5 C          -5.0148   -1.0702    0.4049 C.ar    1  UNL1        0.0205
      6 C          -6.3943   -1.3553    0.4576 C.ar    1  UNL1       -0.0474
      7 S          -3.7285   -2.1994    0.5125 S.2     1  UNL1       -0.0882
      8 C          -2.5242   -0.9872    0.3583 C.ar    1  UNL1        0.0211
      9 C          -1.1253   -1.1843    0.3595 C.ar    1  UNL1       -0.0367
     10 C          -0.2618   -0.0865    0.2232 C.ar    1  UNL1        0.0184
     11 C           1.1877   -0.2839    0.2237 C.ar    1  UNL1        0.1363
     12 C           2.0133   -1.3891    0.3356 C.ar    1  UNL1       -0.0080
     13 C           3.3506   -0.9198    0.2628 C.ar    1  UNL1        0.0243
     14 C           4.6278   -1.4931    0.3081 C.ar    1  UNL1       -0.0080
     15 C           5.7325   -0.6554    0.1974 C.ar    1  UNL1        0.1356
     16 O           7.0369   -1.0414    0.2213 O.2     1  UNL1       -0.4629
     17 C           7.7832    0.0863    0.0834 C.ar    1  UNL1        0.0931
     18 C           6.9744    1.1948   -0.0290 C.ar    1  UNL1       -0.0160
     19 C           5.6377    0.7242    0.0438 C.ar    1  UNL1        0.0236
     20 C           4.3599    1.2960   -0.0013 C.ar    1  UNL1       -0.0080
     21 C           3.2559    0.4573    0.1095 C.ar    1  UNL1        0.1365
     22 O           1.9534    0.8431    0.0856 O.2     1  UNL1       -0.4548
     23 C          -0.8179    1.1865    0.0885 C.ar    1  UNL1       -0.0504
     24 C          -2.2059    1.3787    0.0877 C.ar    1  UNL1       -0.0523
     25 C          -3.0891    0.2795    0.2244 C.ar    1  UNL1       -0.0030
     26 H          -8.3753   -0.5165    0.3930 H       1  UNL1        0.0618
     27 H          -7.5849    1.8114    0.1196 H       1  UNL1        0.0618
     28 H          -5.1672    2.3049    0.0280 H       1  UNL1        0.0624
     29 H          -6.7431   -2.3773    0.5777 H       1  UNL1        0.0629
     30 H          -0.7347   -2.1922    0.4669 H       1  UNL1        0.0636
     31 H           1.6950   -2.4145    0.4555 H       1  UNL1        0.0661
     32 H           4.7624   -2.5631    0.4263 H       1  UNL1        0.0661
     33 H           8.8542   -0.0620    0.0840 H       1  UNL1        0.1029
     34 H           7.3078    2.2156   -0.1487 H       1  UNL1        0.0655
     35 H           4.2249    2.3659   -0.1195 H       1  UNL1        0.0661
     36 H          -0.1762    2.0594   -0.0192 H       1  UNL1        0.0625
     37 H          -2.6016    2.3856   -0.0195 H       1  UNL1        0.0624
@<TRIPOS>BOND
     1     1     2   ar
     2     2     3   ar
     3     3     4   ar
     4     4     5   ar
     5     5     6   ar
     6     5     7   ar
     7     7     8   ar
     8     8     9   ar
     9     9    10   ar
    10    10    11    1
    11    11    12   ar
    12    12    13   ar
    13    13    14   ar
    14    14    15   ar
    15    15    16   ar
    16    16    17   ar
    17    17    18   ar
    18    18    19   ar
    19    19    20   ar
    20    20    21   ar
    21    21    22   ar
    22    10    23   ar
    23    23    24   ar
    24    24    25   ar
    25     6     1   ar
    26    25     8   ar
    27    25     4   ar
    28    22    11   ar
    29    21    13   ar
    30    19    15   ar
    31     1    26    1
    32     2    27    1
    33     3    28    1
    34     6    29    1
    35     9    30    1
    36    12    31    1
    37    14    32    1
    38    17    33    1
    39    18    34    1
    40    20    35    1
    41    23    36    1
    42    24    37    1
