@<TRIPOS>MOLECULE
*****
 36 41 0 0 0
SMALL
GASTEIGER

@<TRIPOS>ATOM
      1 C          -7.0844    0.1269    0.5201 C.ar    1  UNL1       -0.0607
      2 C          -6.7000    0.7381   -0.6636 C.ar    1  UNL1       -0.0611
      3 C          -5.3457    0.8374   -0.9967 C.ar    1  UNL1       -0.0529
      4 C          -4.3447    0.3173   -0.1342 C.ar    1  UNL1       -0.0031
      5 C          -4.7619   -0.2921    1.0496 C.ar    1  UNL1        0.0205
      6 C          -6.1258   -0.3949    1.3904 C.ar    1  UNL1       -0.0474
      7 S          -3.4290   -0.8608    1.9668 S.2     1  UNL1       -0.0882
      8 C          -2.2807   -0.3120    0.8164 C.ar    1  UNL1        0.0211
      9 C          -0.8759   -0.4385    0.8997 C.ar    1  UNL1       -0.0383
     10 C          -0.0562    0.0621   -0.1249 C.ar    1  UNL1       -0.0005
     11 C           1.4089   -0.0740   -0.0300 C.ar    1  UNL1        0.0501
     12 C           2.2029   -0.6511    0.9614 C.ar    1  UNL1       -0.0087
     13 C           3.5570   -0.5277    0.5833 C.ar    1  UNL1        0.1089
     14 N           4.7053   -0.9222    1.1952 N.ar    1  UNL1       -0.2387
     15 C           5.8453   -0.6242    0.5143 C.ar    1  UNL1        0.1293
     16 C           7.2042   -0.8602    0.8071 C.ar    1  UNL1        0.0039
     17 C           7.9146   -0.3350   -0.2515 C.ar    1  UNL1        0.0966
     18 O           7.0795    0.2109   -1.1801 O.2     1  UNL1       -0.4439
     19 C           5.8125    0.0353   -0.7141 C.ar    1  UNL1        0.2478
     20 N           4.6874    0.4367   -1.3414 N.ar    1  UNL1       -0.1914
     21 C           3.5794    0.1256   -0.6395 C.ar    1  UNL1        0.1609
     22 N           2.2895    0.3910   -0.9948 N.ar    1  UNL1       -0.3377
     23 C          -0.6694    0.6817   -1.2154 C.ar    1  UNL1       -0.0520
     24 C          -2.0645    0.8060   -1.2955 C.ar    1  UNL1       -0.0523
     25 C          -2.8996    0.3046   -0.2678 C.ar    1  UNL1       -0.0031
     26 H          -8.1390    0.0520    0.7748 H       1  UNL1        0.0618
     27 H          -7.4524    1.1422   -1.3365 H       1  UNL1        0.0618
     28 H          -5.0619    1.3198   -1.9286 H       1  UNL1        0.0624
     29 H          -6.4291   -0.8736    2.3175 H       1  UNL1        0.0629
     30 H          -0.4482   -0.9289    1.7692 H       1  UNL1        0.0635
     31 H           1.8537   -1.1180    1.8717 H       1  UNL1        0.0661
     32 H           7.6110   -1.3504    1.6785 H       1  UNL1        0.0671
     33 H           8.9687   -0.2713   -0.4851 H       1  UNL1        0.1031
     34 H           2.0441    0.8634   -1.8506 H       1  UNL1        0.1674
     35 H          -0.0902    1.0888   -2.0389 H       1  UNL1        0.0624
     36 H          -2.5055    1.2950   -2.1609 H       1  UNL1        0.0624
@<TRIPOS>BOND
     1     1     2   ar
     2     2     3   ar
     3     3     4   ar
     4     4     5   ar
     5     5     6   ar
     6     5     7   ar
     7     7     8   ar
     8     8     9   ar
     9     9    10   ar
    10    10    11    1
    11    11    12   ar
    12    12    13   ar
    13    13    14   ar
    14    14    15   ar
    15    15    16   ar
    16    16    17   ar
    17    17    18   ar
    18    18    19   ar
    19    19    20   ar
    20    20    21   ar
    21    21    22   ar
    22    10    23   ar
    23    23    24   ar
    24    24    25   ar
    25     6     1   ar
    26    25     8   ar
    27    25     4   ar
    28    22    11   ar
    29    21    13   ar
    30    19    15   ar
    31     1    26    1
    32     2    27    1
    33     3    28    1
    34     6    29    1
    35     9    30    1
    36    12    31    1
    37    16    32    1
    38    17    33    1
    39    22    34    1
    40    23    35    1
    41    24    36    1
