@<TRIPOS>MOLECULE
*****
 33 37 0 0 0
SMALL
GASTEIGER

@<TRIPOS>ATOM
      1 C           6.1436    0.6424    0.0067 C.ar    1  UNL1       -0.0607
      2 C           5.7856   -0.5606   -0.5824 C.ar    1  UNL1       -0.0611
      3 C           4.4385   -0.9212   -0.6827 C.ar    1  UNL1       -0.0529
      4 C           3.4180   -0.0677   -0.1862 C.ar    1  UNL1       -0.0031
      5 C           3.8089    1.1361    0.4011 C.ar    1  UNL1        0.0205
      6 C           5.1655    1.5048    0.5049 C.ar    1  UNL1       -0.0474
      7 S           2.4554    2.0395    0.9428 S.2     1  UNL1       -0.0882
      8 C           1.3326    0.8564    0.4123 C.ar    1  UNL1        0.0211
      9 C          -0.0728    0.9154    0.5295 C.ar    1  UNL1       -0.0397
     10 C          -0.8665   -0.1371    0.0430 C.ar    1  UNL1       -0.0167
     11 C          -2.3347   -0.0883    0.1601 C.ar    1  UNL1       -0.0157
     12 C          -2.9493    0.1173    1.4121 C.ar    1  UNL1       -0.0519
     13 C          -4.3423    0.1697    1.5695 C.ar    1  UNL1       -0.0342
     14 C          -5.0984    0.0057    0.4112 C.ar    1  UNL1        0.0858
     15 N          -6.4411   -0.0068    0.1590 N.ar    1  UNL1       -0.2571
     16 N          -6.7058   -0.2033   -1.1429 N.ar    1  UNL1       -0.0673
     17 N          -5.5422   -0.3223   -1.7711 N.ar    1  UNL1       -0.1297
     18 C          -4.5428   -0.1992   -0.8428 C.ar    1  UNL1        0.1130
     19 C          -3.1484   -0.2479   -0.9803 C.ar    1  UNL1       -0.0247
     20 C          -0.2302   -1.2283   -0.5530 C.ar    1  UNL1       -0.0534
     21 C           1.1649   -1.2845   -0.6674 C.ar    1  UNL1       -0.0524
     22 C           1.9754   -0.2291   -0.1797 C.ar    1  UNL1       -0.0031
     23 H           7.1927    0.9188    0.0820 H       1  UNL1        0.0618
     24 H           6.5528   -1.2271   -0.9687 H       1  UNL1        0.0618
     25 H           4.1748   -1.8678   -1.1478 H       1  UNL1        0.0624
     26 H           5.4482    2.4473    0.9656 H       1  UNL1        0.0629
     27 H          -0.5357    1.7870    0.9870 H       1  UNL1        0.0635
     28 H          -2.3280    0.2300    2.3011 H       1  UNL1        0.0624
     29 H          -4.7949    0.3260    2.5426 H       1  UNL1        0.0639
     30 H          -7.2146    0.1082    0.8016 H       1  UNL1        0.1907
     31 H          -2.7178   -0.3972   -1.9653 H       1  UNL1        0.0646
     32 H          -0.8162   -2.0644   -0.9315 H       1  UNL1        0.0624
     33 H           1.6247   -2.1515   -1.1352 H       1  UNL1        0.0624
@<TRIPOS>BOND
     1     1     2   ar
     2     2     3   ar
     3     3     4   ar
     4     4     5   ar
     5     5     6   ar
     6     5     7   ar
     7     7     8   ar
     8     8     9   ar
     9     9    10   ar
    10    10    11    1
    11    11    12   ar
    12    12    13   ar
    13    13    14   ar
    14    14    15   ar
    15    15    16   ar
    16    16    17   ar
    17    17    18   ar
    18    18    19   ar
    19    10    20   ar
    20    20    21   ar
    21    21    22   ar
    22     6     1   ar
    23    22     8   ar
    24    22     4   ar
    25    19    11   ar
    26    18    14   ar
    27     1    23    1
    28     2    24    1
    29     3    25    1
    30     6    26    1
    31     9    27    1
    32    12    28    1
    33    13    29    1
    34    15    30    1
    35    19    31    1
    36    20    32    1
    37    21    33    1
