@<TRIPOS>MOLECULE
*****
 39 44 0 0 0
SMALL
GASTEIGER

@<TRIPOS>ATOM
      1 C          -6.0835    1.4949    0.4411 C.ar    1  UNL1       -0.0607
      2 C          -5.7646    1.1950   -0.8745 C.ar    1  UNL1       -0.0611
      3 C          -4.5164    0.6490   -1.1888 C.ar    1  UNL1       -0.0529
      4 C          -3.5578    0.3929   -0.1729 C.ar    1  UNL1       -0.0031
      5 C          -3.9074    0.7048    1.1414 C.ar    1  UNL1        0.0205
      6 C          -5.1643    1.2554    1.4640 C.ar    1  UNL1       -0.0474
      7 S          -2.6392    0.3328    2.2341 S.2     1  UNL1       -0.0882
      8 C          -1.6083   -0.2444    0.9912 C.ar    1  UNL1        0.0211
      9 C          -0.3012   -0.7504    1.1487 C.ar    1  UNL1       -0.0397
     10 C           0.4214   -1.1751    0.0226 C.ar    1  UNL1       -0.0162
     11 C           1.7776   -1.7056    0.1711 C.ar    1  UNL1       -0.0090
     12 C           1.9544   -3.0907    0.3654 C.ar    1  UNL1       -0.0534
     13 C           3.2174   -3.6392    0.5106 C.ar    1  UNL1       -0.0601
     14 C           4.3404   -2.8204    0.4661 C.ar    1  UNL1       -0.0473
     15 C           4.1777   -1.4327    0.2727 C.ar    1  UNL1        0.0225
     16 S           5.4529   -0.2839    0.1932 S.2     1  UNL1       -0.0687
     17 C           4.3810    1.0044   -0.0381 C.ar    1  UNL1        0.1093
     18 N           4.8606    2.2596   -0.1764 N.ar    1  UNL1       -0.2478
     19 C           3.9146    3.1991   -0.3530 C.ar    1  UNL1        0.0289
     20 C           2.5562    2.9602   -0.3992 C.ar    1  UNL1       -0.0429
     21 C           2.1070    1.6496   -0.2534 C.ar    1  UNL1       -0.0500
     22 C           3.0482    0.6077   -0.0620 C.ar    1  UNL1        0.0159
     23 C           2.9166   -0.8372    0.1216 C.ar    1  UNL1        0.0061
     24 C          -0.1797   -1.1058   -1.2347 C.ar    1  UNL1       -0.0534
     25 C          -1.4782   -0.6054   -1.3846 C.ar    1  UNL1       -0.0524
     26 C          -2.2183   -0.1598   -0.2598 C.ar    1  UNL1       -0.0031
     27 H          -7.0558    1.9190    0.6808 H       1  UNL1        0.0618
     28 H          -6.4860    1.3837   -1.6658 H       1  UNL1        0.0618
     29 H          -4.2830    0.4193   -2.2254 H       1  UNL1        0.0624
     30 H          -5.4165    1.4906    2.4944 H       1  UNL1        0.0629
     31 H           0.1454   -0.8029    2.1393 H       1  UNL1        0.0635
     32 H           1.0846   -3.7452    0.4035 H       1  UNL1        0.0624
     33 H           3.3331   -4.7098    0.6602 H       1  UNL1        0.0618
     34 H           5.3335   -3.2480    0.5801 H       1  UNL1        0.0629
     35 H           4.2972    4.2111   -0.4632 H       1  UNL1        0.0830
     36 H           1.8546    3.7744   -0.5450 H       1  UNL1        0.0633
     37 H           1.0410    1.4523   -0.2882 H       1  UNL1        0.0625
     38 H           0.3631   -1.4390   -2.1179 H       1  UNL1        0.0624
     39 H          -1.9186   -0.5605   -2.3776 H       1  UNL1        0.0624
@<TRIPOS>BOND
     1     1     2   ar
     2     2     3   ar
     3     3     4   ar
     4     4     5   ar
     5     5     6   ar
     6     5     7   ar
     7     7     8   ar
     8     8     9   ar
     9     9    10   ar
    10    10    11    1
    11    11    12   ar
    12    12    13   ar
    13    13    14   ar
    14    14    15   ar
    15    15    16   ar
    16    16    17   ar
    17    17    18   ar
    18    18    19   ar
    19    19    20   ar
    20    20    21   ar
    21    21    22   ar
    22    22    23   ar
    23    10    24   ar
    24    24    25   ar
    25    25    26   ar
    26     6     1   ar
    27    26     8   ar
    28    26     4   ar
    29    23    11   ar
    30    23    15   ar
    31    22    17   ar
    32     1    27    1
    33     2    28    1
    34     3    29    1
    35     6    30    1
    36     9    31    1
    37    12    32    1
    38    13    33    1
    39    14    34    1
    40    19    35    1
    41    20    36    1
    42    21    37    1
    43    24    38    1
    44    25    39    1
