@<TRIPOS>MOLECULE
*****
 28 31 0 0 0
SMALL
GASTEIGER

@<TRIPOS>ATOM
      1 C          -5.1274    0.0490   -0.2179 C.ar    1  UNL1       -0.0607
      2 C          -4.5962   -1.1353   -0.7054 C.ar    1  UNL1       -0.0611
      3 C          -3.2122   -1.3341   -0.7147 C.ar    1  UNL1       -0.0529
      4 C          -2.3302   -0.3332   -0.2283 C.ar    1  UNL1       -0.0031
      5 C          -2.8941    0.8477    0.2558 C.ar    1  UNL1        0.0205
      6 C          -4.2885    1.0535    0.2677 C.ar    1  UNL1       -0.0474
      7 S          -1.6907    1.9413    0.8007 S.2     1  UNL1       -0.0882
      8 C          -0.4063    0.8750    0.4055 C.ar    1  UNL1        0.0211
      9 C           0.9735    1.1150    0.5860 C.ar    1  UNL1       -0.0396
     10 C           1.9040    0.1340    0.2142 C.ar    1  UNL1       -0.0139
     11 C           3.3252    0.3810    0.3958 C.ar    1  UNL1        0.0193
     12 C           4.0610    1.5901    0.4039 C.ar    1  UNL1        0.0568
     13 N           5.3655    1.4022    0.6212 N.ar    1  UNL1       -0.1817
     14 N           5.4715    0.0716    0.7582 N.ar    1  UNL1       -0.2841
     15 C           4.2811   -0.5850    0.6328 C.ar    1  UNL1        0.0300
     16 C           1.4451   -1.0628   -0.3342 C.ar    1  UNL1       -0.0533
     17 C           0.0750   -1.2944   -0.5125 C.ar    1  UNL1       -0.0524
     18 C          -0.8813   -0.3166   -0.1396 C.ar    1  UNL1       -0.0031
     19 H          -6.2045    0.1992   -0.2127 H       1  UNL1        0.0618
     20 H          -5.2558   -1.9132   -1.0821 H       1  UNL1        0.0618
     21 H          -2.8123   -2.2685   -1.1004 H       1  UNL1        0.0624
     22 H          -4.7068    1.9809    0.6492 H       1  UNL1        0.0629
     23 H           1.2965    2.0550    1.0254 H       1  UNL1        0.0635
     24 H           3.7001    2.5998    0.2552 H       1  UNL1        0.0854
     25 H           6.3891   -0.3213    0.9404 H       1  UNL1        0.1882
     26 H           4.2276   -1.6591    0.7355 H       1  UNL1        0.0830
     27 H           2.1433   -1.8355   -0.6475 H       1  UNL1        0.0624
     28 H          -0.2523   -2.2363   -0.9458 H       1  UNL1        0.0624
@<TRIPOS>BOND
     1     1     2   ar
     2     2     3   ar
     3     3     4   ar
     4     4     5   ar
     5     5     6   ar
     6     5     7   ar
     7     7     8   ar
     8     8     9   ar
     9     9    10   ar
    10    10    11    1
    11    11    12   ar
    12    12    13   ar
    13    13    14   ar
    14    14    15   ar
    15    10    16   ar
    16    16    17   ar
    17    17    18   ar
    18     6     1   ar
    19    18     8   ar
    20    18     4   ar
    21    15    11   ar
    22     1    19    1
    23     2    20    1
    24     3    21    1
    25     6    22    1
    26     9    23    1
    27    12    24    1
    28    14    25    1
    29    15    26    1
    30    16    27    1
    31    17    28    1
