@<TRIPOS>MOLECULE
*****
 39 44 0 0 0
SMALL
GASTEIGER

@<TRIPOS>ATOM
      1 C           6.7418   -1.3891   -0.3669 C.ar    1  UNL1       -0.0607
      2 C           6.1786   -1.6459    0.8738 C.ar    1  UNL1       -0.0611
      3 C           4.8662   -1.2485    1.1464 C.ar    1  UNL1       -0.0529
      4 C           4.0901   -0.5784    0.1639 C.ar    1  UNL1       -0.0031
      5 C           4.6841   -0.3335   -1.0747 C.ar    1  UNL1        0.0205
      6 C           6.0067   -0.7322   -1.3551 C.ar    1  UNL1       -0.0474
      7 S           3.6112    0.4812   -2.1359 S.2     1  UNL1       -0.0882
      8 C           2.3464    0.5244   -0.9785 C.ar    1  UNL1        0.0211
      9 C           1.0626    1.0833   -1.1541 C.ar    1  UNL1       -0.0396
     10 C           0.1291    1.0339   -0.1073 C.ar    1  UNL1       -0.0134
     11 C          -1.2059    1.5986   -0.2790 C.ar    1  UNL1        0.0242
     12 C          -1.4539    2.9640   -0.4209 C.ar    1  UNL1        0.0373
     13 N          -2.6730    3.5320   -0.5775 N.ar    1  UNL1       -0.2619
     14 C          -3.7658    2.7321   -0.6039 C.ar    1  UNL1        0.0374
     15 C          -3.6377    1.3428   -0.4780 C.ar    1  UNL1        0.0275
     16 C          -2.3599    0.8030   -0.3199 C.ar    1  UNL1        0.0583
     17 N          -2.5094   -0.5644   -0.2407 N.ar    1  UNL1       -0.3535
     18 C          -3.8334   -0.9203   -0.3219 C.ar    1  UNL1        0.0504
     19 C          -4.4388   -2.1743   -0.2803 C.ar    1  UNL1       -0.0196
     20 C          -5.8203   -2.1610   -0.3968 C.ar    1  UNL1        0.0295
     21 N          -6.5747   -1.0498   -0.5425 N.ar    1  UNL1       -0.2625
     22 C          -5.9610    0.1589   -0.5824 C.ar    1  UNL1        0.0373
     23 C          -4.5678    0.2554   -0.4717 C.ar    1  UNL1        0.0269
     24 C           0.4999    0.4339    1.0973 C.ar    1  UNL1       -0.0533
     25 C           1.7757   -0.1166    1.2683 C.ar    1  UNL1       -0.0524
     26 C           2.7278   -0.0799    0.2184 C.ar    1  UNL1       -0.0031
     27 H           7.7633   -1.6996   -0.5741 H       1  UNL1        0.0618
     28 H           6.7580   -2.1572    1.6388 H       1  UNL1        0.0618
     29 H           4.4409   -1.4569    2.1249 H       1  UNL1        0.0624
     30 H           6.4504   -0.5312   -2.3264 H       1  UNL1        0.0629
     31 H           0.8000    1.5416   -2.1056 H       1  UNL1        0.0635
     32 H          -0.6312    3.6764   -0.4041 H       1  UNL1        0.0836
     33 H          -4.7209    3.2295   -0.7299 H       1  UNL1        0.0836
     34 H          -1.7419   -1.2144   -0.1414 H       1  UNL1        0.1659
     35 H          -3.8817   -3.0950   -0.1670 H       1  UNL1        0.0653
     36 H          -6.3825   -3.0914   -0.3754 H       1  UNL1        0.0830
     37 H          -6.6075    1.0207   -0.7026 H       1  UNL1        0.0836
     38 H          -0.2013    0.3992    1.9303 H       1  UNL1        0.0624
     39 H           2.0358   -0.5712    2.2213 H       1  UNL1        0.0624
@<TRIPOS>BOND
     1     1     2   ar
     2     2     3   ar
     3     3     4   ar
     4     4     5   ar
     5     5     6   ar
     6     5     7   ar
     7     7     8   ar
     8     8     9   ar
     9     9    10   ar
    10    10    11    1
    11    11    12   ar
    12    12    13   ar
    13    13    14   ar
    14    14    15   ar
    15    15    16   ar
    16    16    17   ar
    17    17    18   ar
    18    18    19   ar
    19    19    20   ar
    20    20    21   ar
    21    21    22   ar
    22    22    23   ar
    23    10    24   ar
    24    24    25   ar
    25    25    26   ar
    26     6     1   ar
    27    26     8   ar
    28    26     4   ar
    29    16    11   ar
    30    23    18   ar
    31    23    15   ar
    32     1    27    1
    33     2    28    1
    34     3    29    1
    35     6    30    1
    36     9    31    1
    37    12    32    1
    38    14    33    1
    39    17    34    1
    40    19    35    1
    41    20    36    1
    42    22    37    1
    43    24    38    1
    44    25    39    1
