@<TRIPOS>MOLECULE
*****
 35 40 0 0 0
SMALL
GASTEIGER

@<TRIPOS>ATOM
      1 C          -6.9334    0.2165    0.6108 C.ar    1  UNL1       -0.0607
      2 C          -6.5666   -1.1125    0.7579 C.ar    1  UNL1       -0.0611
      3 C          -5.2209   -1.4837    0.6796 C.ar    1  UNL1       -0.0529
      4 C          -4.2107   -0.5127    0.4496 C.ar    1  UNL1       -0.0031
      5 C          -4.6102    0.8164    0.3057 C.ar    1  UNL1        0.0205
      6 C          -5.9654    1.1963    0.3836 C.ar    1  UNL1       -0.0474
      7 S          -3.2687    1.8499    0.0353 S.2     1  UNL1       -0.0882
      8 C          -2.1391    0.5606    0.1037 C.ar    1  UNL1        0.0212
      9 C          -0.7384    0.6598   -0.0443 C.ar    1  UNL1       -0.0351
     10 C           0.0547   -0.4950    0.0379 C.ar    1  UNL1        0.0380
     11 C           1.5082   -0.4404   -0.1090 C.ar    1  UNL1        0.2284
     12 N           2.3854   -1.4298   -0.0575 N.ar    1  UNL1       -0.2088
     13 C           3.5913   -0.8118   -0.2580 C.ar    1  UNL1        0.1135
     14 C           4.8942   -1.3134   -0.3142 C.ar    1  UNL1        0.0120
     15 C           5.9198   -0.4050   -0.5371 C.ar    1  UNL1        0.1573
     16 O           7.2577   -0.6510   -0.6318 O.2     1  UNL1       -0.4424
     17 C           7.7934    0.5842   -0.8525 C.ar    1  UNL1        0.1831
     18 N           6.9317    1.5781   -0.9061 N.ar    1  UNL1       -0.2160
     19 C           5.7246    0.9603   -0.7055 C.ar    1  UNL1        0.1129
     20 C           4.4214    1.4608   -0.6491 C.ar    1  UNL1        0.0120
     21 C           3.3964    0.5516   -0.4262 C.ar    1  UNL1        0.1580
     22 O           2.0605    0.7987   -0.3318 O.2     1  UNL1       -0.4352
     23 C          -0.5662   -1.7238    0.2660 C.ar    1  UNL1       -0.0489
     24 C          -1.9559   -1.8173    0.4121 C.ar    1  UNL1       -0.0522
     25 C          -2.7714   -0.6607    0.3318 C.ar    1  UNL1       -0.0030
     26 H          -7.9813    0.5003    0.6725 H       1  UNL1        0.0618
     27 H          -7.3261   -1.8703    0.9346 H       1  UNL1        0.0618
     28 H          -4.9508   -2.5302    0.7972 H       1  UNL1        0.0624
     29 H          -6.2550    2.2372    0.2687 H       1  UNL1        0.0629
     30 H          -0.2876    1.6335   -0.2210 H       1  UNL1        0.0636
     31 H           5.0936   -2.3709   -0.1883 H       1  UNL1        0.0677
     32 H           8.8682    0.6290   -0.9617 H       1  UNL1        0.1255
     33 H           4.2218    2.5183   -0.7750 H       1  UNL1        0.0677
     34 H           0.0314   -2.6325    0.3332 H       1  UNL1        0.0625
     35 H          -2.4070   -2.7908    0.5888 H       1  UNL1        0.0624
@<TRIPOS>BOND
     1     1     2   ar
     2     2     3   ar
     3     3     4   ar
     4     4     5   ar
     5     5     6   ar
     6     5     7   ar
     7     7     8   ar
     8     8     9   ar
     9     9    10   ar
    10    10    11    1
    11    11    12   ar
    12    12    13   ar
    13    13    14   ar
    14    14    15   ar
    15    15    16   ar
    16    16    17   ar
    17    17    18   ar
    18    18    19   ar
    19    19    20   ar
    20    20    21   ar
    21    21    22   ar
    22    10    23   ar
    23    23    24   ar
    24    24    25   ar
    25     6     1   ar
    26    25     8   ar
    27    25     4   ar
    28    22    11   ar
    29    21    13   ar
    30    19    15   ar
    31     1    26    1
    32     2    27    1
    33     3    28    1
    34     6    29    1
    35     9    30    1
    36    14    31    1
    37    17    32    1
    38    20    33    1
    39    23    34    1
    40    24    35    1
