@<TRIPOS>MOLECULE
*****
 35 40 0 0 0
SMALL
GASTEIGER

@<TRIPOS>ATOM
      1 C          -6.9808   -0.7058    0.7316 C.ar    1  UNL1       -0.0607
      2 C          -6.7758    0.4476   -0.0100 C.ar    1  UNL1       -0.0611
      3 C          -5.4779    0.8552   -0.3325 C.ar    1  UNL1       -0.0529
      4 C          -4.3521    0.1004    0.0910 C.ar    1  UNL1       -0.0031
      5 C          -4.5898   -1.0554    0.8358 C.ar    1  UNL1        0.0205
      6 C          -5.8962   -1.4711    1.1637 C.ar    1  UNL1       -0.0474
      7 S          -3.1257   -1.8404    1.2617 S.2     1  UNL1       -0.0882
      8 C          -2.1556   -0.6682    0.4705 C.ar    1  UNL1        0.0211
      9 C          -0.7466   -0.6522    0.3910 C.ar    1  UNL1       -0.0377
     10 C          -0.0817    0.3797   -0.2962 C.ar    1  UNL1        0.0082
     11 C           1.3974    0.3496   -0.3498 C.ar    1  UNL1        0.1095
     12 N           2.1279   -0.5949    0.2133 N.ar    1  UNL1       -0.2390
     13 C           3.4749   -0.3679    0.0031 C.ar    1  UNL1        0.0801
     14 C           4.5297   -1.1686    0.4590 C.ar    1  UNL1       -0.0194
     15 C           5.8505   -0.8225    0.1746 C.ar    1  UNL1        0.0410
     16 S           7.3148   -1.6178    0.6070 S.2     1  UNL1       -0.0753
     17 C           8.2026   -0.4017   -0.2080 C.ar    1  UNL1        0.0659
     18 N           7.5011    0.5515   -0.7781 N.ar    1  UNL1       -0.2474
     19 C           6.1525    0.3211   -0.5657 C.ar    1  UNL1        0.0793
     20 C           5.0958    1.1202   -1.0205 C.ar    1  UNL1       -0.0194
     21 C           3.7757    0.7725   -0.7350 C.ar    1  UNL1        0.0416
     22 S           2.3140    1.5619   -1.1639 S.2     1  UNL1       -0.0671
     23 C          -0.8567    1.3784   -0.8915 C.ar    1  UNL1       -0.0514
     24 C          -2.2574    1.3600   -0.8110 C.ar    1  UNL1       -0.0523
     25 C          -2.9338    0.3242   -0.1208 C.ar    1  UNL1       -0.0031
     26 H          -7.9922   -1.0190    0.9800 H       1  UNL1        0.0618
     27 H          -7.6256    1.0385   -0.3431 H       1  UNL1        0.0618
     28 H          -5.3351    1.7621   -0.9147 H       1  UNL1        0.0624
     29 H          -6.0589   -2.3747    1.7448 H       1  UNL1        0.0629
     30 H          -0.1759   -1.4478    0.8676 H       1  UNL1        0.0635
     31 H           4.3030   -2.0607    1.0360 H       1  UNL1        0.0651
     32 H           9.2840   -0.4233   -0.2475 H       1  UNL1        0.0907
     33 H           5.3214    2.0125   -1.5976 H       1  UNL1        0.0651
     34 H          -0.4006    2.2016   -1.4361 H       1  UNL1        0.0624
     35 H          -2.8265    2.1551   -1.2873 H       1  UNL1        0.0624
@<TRIPOS>BOND
     1     1     2   ar
     2     2     3   ar
     3     3     4   ar
     4     4     5   ar
     5     5     6   ar
     6     5     7   ar
     7     7     8   ar
     8     8     9   ar
     9     9    10   ar
    10    10    11    1
    11    11    12   ar
    12    12    13   ar
    13    13    14   ar
    14    14    15   ar
    15    15    16   ar
    16    16    17   ar
    17    17    18   ar
    18    18    19   ar
    19    19    20   ar
    20    20    21   ar
    21    21    22   ar
    22    10    23   ar
    23    23    24   ar
    24    24    25   ar
    25     6     1   ar
    26    25     8   ar
    27    25     4   ar
    28    22    11   ar
    29    21    13   ar
    30    19    15   ar
    31     1    26    1
    32     2    27    1
    33     3    28    1
    34     6    29    1
    35     9    30    1
    36    14    31    1
    37    17    32    1
    38    20    33    1
    39    23    34    1
    40    24    35    1
