@<TRIPOS>MOLECULE
*****
 35 40 0 0 0
SMALL
GASTEIGER

@<TRIPOS>ATOM
      1 C          -6.9502    0.6186    0.5718 C.ar    1  UNL1       -0.0607
      2 C          -6.6525   -0.2263   -0.4865 C.ar    1  UNL1       -0.0611
      3 C          -5.3214   -0.5068   -0.8097 C.ar    1  UNL1       -0.0529
      4 C          -4.2560    0.0648   -0.0649 C.ar    1  UNL1       -0.0031
      5 C          -4.5867    0.9110    0.9942 C.ar    1  UNL1        0.0205
      6 C          -5.9268    1.1972    1.3244 C.ar    1  UNL1       -0.0474
      7 S          -3.1857    1.5099    1.7811 S.2     1  UNL1       -0.0882
      8 C          -2.1207    0.6629    0.7376 C.ar    1  UNL1        0.0211
      9 C          -0.7107    0.6720    0.7813 C.ar    1  UNL1       -0.0368
     10 C           0.0303   -0.0776   -0.1467 C.ar    1  UNL1        0.0185
     11 C           1.4984   -0.0431   -0.0699 C.ar    1  UNL1        0.1422
     12 N           2.2041    0.6477    0.8167 N.ar    1  UNL1       -0.2068
     13 C           3.5158    0.3965    0.5298 C.ar    1  UNL1        0.1998
     14 N           4.6110    0.8804    1.1644 N.ar    1  UNL1       -0.2020
     15 C           5.7899    0.4520    0.6513 C.ar    1  UNL1        0.1992
     16 N           7.0525    0.7668    1.0766 N.ar    1  UNL1       -0.2152
     17 C           7.8540    0.1078    0.2643 C.ar    1  UNL1        0.0973
     18 N           7.1626   -0.6203   -0.6688 N.ar    1  UNL1       -0.3279
     19 C           5.8366   -0.4138   -0.4386 C.ar    1  UNL1        0.1791
     20 N           4.7730   -0.9183   -1.0984 N.ar    1  UNL1       -0.2052
     21 C           3.6248   -0.4651   -0.5534 C.ar    1  UNL1        0.1795
     22 N           2.3427   -0.7325   -0.9194 N.ar    1  UNL1       -0.3214
     23 C          -0.6571   -0.8245   -1.1039 C.ar    1  UNL1       -0.0505
     24 C          -2.0591   -0.8309   -1.1438 C.ar    1  UNL1       -0.0523
     25 C          -2.8190   -0.0787   -0.2130 C.ar    1  UNL1       -0.0030
     26 H          -7.9869    0.8341    0.8197 H       1  UNL1        0.0618
     27 H          -7.4552   -0.6731   -1.0679 H       1  UNL1        0.0618
     28 H          -5.1062   -1.1714   -1.6425 H       1  UNL1        0.0624
     29 H          -6.1619    1.8591    2.1534 H       1  UNL1        0.0629
     30 H          -0.1989    1.2640    1.5391 H       1  UNL1        0.0636
     31 H           8.9358    0.1183    0.3020 H       1  UNL1        0.1028
     32 H           7.5507   -1.2034   -1.3947 H       1  UNL1        0.1683
     33 H           2.0751   -1.3328   -1.6819 H       1  UNL1        0.1689
     34 H          -0.1347   -1.4219   -1.8450 H       1  UNL1        0.0625
     35 H          -2.5677   -1.4227   -1.9013 H       1  UNL1        0.0624
@<TRIPOS>BOND
     1     1     2   ar
     2     2     3   ar
     3     3     4   ar
     4     4     5   ar
     5     5     6   ar
     6     5     7   ar
     7     7     8   ar
     8     8     9   ar
     9     9    10   ar
    10    10    11    1
    11    11    12   ar
    12    12    13   ar
    13    13    14   ar
    14    14    15   ar
    15    15    16   ar
    16    16    17   ar
    17    17    18   ar
    18    18    19   ar
    19    19    20   ar
    20    20    21   ar
    21    21    22   ar
    22    10    23   ar
    23    23    24   ar
    24    24    25   ar
    25     6     1   ar
    26    25     8   ar
    27    25     4   ar
    28    22    11   ar
    29    21    13   ar
    30    19    15   ar
    31     1    26    1
    32     2    27    1
    33     3    28    1
    34     6    29    1
    35     9    30    1
    36    17    31    1
    37    18    32    1
    38    22    33    1
    39    23    34    1
    40    24    35    1
