@<TRIPOS>MOLECULE
*****
 45 52 0 0 0
SMALL
GASTEIGER

@<TRIPOS>ATOM
      1 SI         -3.0744    2.5076   -2.9550 Si      1  UNL1        0.0000
      2 C          -4.1715    1.6961   -1.6801 C.2     1  UNL1        0.0000
      3 C          -3.4660    0.9133   -0.8342 C.ar    1  UNL1        0.0000
      4 C          -4.0663   -0.0226    0.1491 C.ar    1  UNL1        0.0000
      5 C          -5.4565    0.0406    0.4568 C.ar    1  UNL1        0.0000
      6 C          -6.1054   -0.8518    1.3197 C.ar    1  UNL1        0.0000
      7 C          -5.2964   -1.8513    1.8951 C.ar    1  UNL1        0.0000
      8 N          -5.7420   -2.7951    2.7383 N.ar    1  UNL1        0.0000
      9 S          -4.4279   -3.7139    3.1474 S.2     1  UNL1        0.0000
     10 N          -3.2471   -2.9562    2.2793 N.ar    1  UNL1        0.0000
     11 C          -3.8100   -1.9360    1.6038 C.ar    1  UNL1        0.0000
     12 C          -3.1801   -0.9956    0.7185 C.ar    1  UNL1        0.0000
     13 C          -1.7157   -0.9683    0.4678 C.ar    1  UNL1        0.0000
     14 N          -0.9918   -1.9583    1.0348 N.ar    1  UNL1        0.0000
     15 C           0.3514   -1.9061    0.9760 C.ar    1  UNL1        0.0000
     16 C           1.0794   -0.8558    0.4432 C.ar    1  UNL1        0.0000
     17 C           2.4983   -0.8987    0.5296 C.ar    1  UNL1        0.0000
     18 C           3.3626    0.1328    0.1107 C.ar    1  UNL1        0.0000
     19 C           4.8215    0.0379    0.2110 C.ar    1  UNL1        0.0000
     20 C           5.5152   -1.0855   -0.2618 C.ar    1  UNL1        0.0000
     21 C           6.9017   -1.1661   -0.1382 C.ar    1  UNL1        0.0000
     22 C           7.5689   -0.1154    0.4651 C.ar    1  UNL1        0.0000
     23 N           6.9514    0.9842    0.9398 N.ar    1  UNL1        0.0000
     24 C           5.6030    1.0364    0.7967 C.ar    1  UNL1        0.0000
     25 C           2.6960    1.2871   -0.3794 C.ar    1  UNL1        0.0000
     26 N           3.2895    2.4218   -0.7908 N.ar    1  UNL1        0.0000
     27 S           2.0937    3.4862   -1.1862 S.2     1  UNL1        0.0000
     28 N           0.7636    2.5594   -0.8885 N.ar    1  UNL1        0.0000
     29 C           1.1775    1.3420   -0.4924 C.ar    1  UNL1        0.0000
     30 C           0.3336    0.2096   -0.1395 C.ar    1  UNL1        0.0000
     31 C          -1.0959    0.0787   -0.2469 C.ar    1  UNL1        0.0000
     32 C          -2.0025    0.9176   -1.0717 C.ar    1  UNL1        0.0000
     33 C          -1.6513    1.5821   -2.1932 C.2     1  UNL1        0.0000
     34 H          -2.9864    3.9756   -2.7691 H       1  UNL1        0.0000
     35 H          -3.3850    2.0470   -4.3295 H       1  UNL1        0.0000
     36 H          -5.2387    1.8195   -1.7553 H       1  UNL1        0.0000
     37 H          -6.0759    0.8169    0.0098 H       1  UNL1        0.0000
     38 H          -7.1652   -0.7844    1.5333 H       1  UNL1        0.0000
     39 H           0.8372   -2.7635    1.4380 H       1  UNL1        0.0000
     40 H           2.9587   -1.7838    0.9784 H       1  UNL1        0.0000
     41 H           4.9835   -1.9031   -0.7432 H       1  UNL1        0.0000
     42 H           7.4471   -2.0276   -0.5068 H       1  UNL1        0.0000
     43 H           8.6483   -0.1300    0.5851 H       1  UNL1        0.0000
     44 H           5.1538    1.9425    1.1972 H       1  UNL1        0.0000
     45 H          -0.6838    1.6344   -2.6627 H       1  UNL1        0.0000
@<TRIPOS>BOND
     1     1     2    1
     2     2     3    2
     3     3     4   ar
     4     4     5   ar
     5     5     6   ar
     6     6     7   ar
     7     7     8   ar
     8     8     9   ar
     9     9    10   ar
    10    10    11   ar
    11    11    12   ar
    12    12    13   ar
    13    13    14   ar
    14    14    15   ar
    15    15    16   ar
    16    16    17   ar
    17    17    18   ar
    18    18    19    1
    19    19    20   ar
    20    20    21   ar
    21    21    22   ar
    22    22    23   ar
    23    23    24   ar
    24    18    25   ar
    25    25    26   ar
    26    26    27   ar
    27    27    28   ar
    28    28    29   ar
    29    29    30   ar
    30    30    31   ar
    31    31    32   ar
    32    32    33    2
    33    33     1    1
    34    32     3   ar
    35    12     4   ar
    36    31    13   ar
    37    11     7   ar
    38    30    16   ar
    39    24    19   ar
    40    29    25   ar
    41     1    34    1
    42     1    35    1
    43     2    36    1
    44     5    37    1
    45     6    38    1
    46    15    39    1
    47    17    40    1
    48    20    41    1
    49    21    42    1
    50    22    43    1
    51    24    44    1
    52    33    45    1
