@<TRIPOS>MOLECULE
*****
 25 27 0 0 0
SMALL
GASTEIGER

@<TRIPOS>ATOM
      1 C           3.7236   -0.7181   -0.1058 C.ar    1  UNL1       -0.0598
      2 C           2.7656   -1.6845    0.1888 C.ar    1  UNL1       -0.0611
      3 C           1.4046   -1.3583    0.2024 C.ar    1  UNL1       -0.0520
      4 C           1.0011   -0.0359   -0.0816 C.ar    1  UNL1        0.0074
      5 C          -0.2622    0.6340   -0.1570 C.ar    1  UNL1        0.0072
      6 C          -1.6021    0.1288    0.0878 C.ar    1  UNL1       -0.0130
      7 C          -1.8851   -0.5760    1.2575 C.ar    1  UNL1       -0.0358
      8 C          -3.1760   -1.0388    1.4501 C.ar    1  UNL1        0.0281
      9 N          -4.1818   -0.8507    0.5692 N.ar    1  UNL1       -0.2632
     10 C          -3.8818   -0.1659   -0.5551 C.ar    1  UNL1        0.0281
     11 C          -2.6241    0.3398   -0.8383 C.ar    1  UNL1       -0.0358
     12 C          -0.0083    1.9462   -0.5040 C.ar    1  UNL1        0.0105
     13 N           1.3466    2.0978   -0.6332 N.ar    1  UNL1       -0.3600
     14 C           1.9869    0.9065   -0.3815 C.ar    1  UNL1        0.0471
     15 C           3.3525    0.5973   -0.3987 C.ar    1  UNL1       -0.0378
     16 H           4.7765   -0.9907   -0.1126 H       1  UNL1        0.0618
     17 H           3.0748   -2.7037    0.4072 H       1  UNL1        0.0618
     18 H           0.6666   -2.1238    0.4231 H       1  UNL1        0.0624
     19 H          -1.1256   -0.7527    2.0112 H       1  UNL1        0.0639
     20 H          -3.4439   -1.5886    2.3477 H       1  UNL1        0.0830
     21 H          -4.7071   -0.0307   -1.2482 H       1  UNL1        0.0830
     22 H          -2.4485    0.8741   -1.7652 H       1  UNL1        0.0639
     23 H          -0.6706    2.7883   -0.6555 H       1  UNL1        0.0813
     24 H           1.8162    2.9592   -0.8751 H       1  UNL1        0.1654
     25 H           4.1020    1.3463   -0.6325 H       1  UNL1        0.0638
@<TRIPOS>BOND
     1     1     2   ar
     2     2     3   ar
     3     3     4   ar
     4     4     5   ar
     5     5     6    1
     6     6     7   ar
     7     7     8   ar
     8     8     9   ar
     9     9    10   ar
    10    10    11   ar
    11     5    12   ar
    12    12    13   ar
    13    13    14   ar
    14    14    15   ar
    15    15     1   ar
    16    14     4   ar
    17    11     6   ar
    18     1    16    1
    19     2    17    1
    20     3    18    1
    21     7    19    1
    22     8    20    1
    23    10    21    1
    24    11    22    1
    25    12    23    1
    26    13    24    1
    27    15    25    1
