@<TRIPOS>MOLECULE
*****
 44 50 0 0 0
SMALL
GASTEIGER

@<TRIPOS>ATOM
      1 C          -5.9082    1.7543   -1.7027 C.ar    1  UNL1       -0.0612
      2 C          -4.5537    1.7547   -2.0042 C.ar    1  UNL1       -0.0611
      3 C          -3.6901    0.8885   -1.3293 C.ar    1  UNL1       -0.0534
      4 C          -4.1526    0.0000   -0.3273 C.ar    1  UNL1       -0.0087
      5 C          -3.3067   -0.8946    0.3952 C.ar    1  UNL1        0.0081
      6 C          -3.8807   -1.7793    1.3295 C.ar    1  UNL1       -0.0520
      7 C          -5.2478   -1.7736    1.5838 C.ar    1  UNL1       -0.0605
      8 C          -6.0711   -0.8822    0.9041 C.ar    1  UNL1       -0.0540
      9 C          -5.5448    0.0011   -0.0496 C.ar    1  UNL1       -0.0173
     10 C          -6.3999    0.8806   -0.7348 C.ar    1  UNL1       -0.0540
     11 C          -1.8446   -0.9268    0.2265 C.ar    1  UNL1        0.0721
     12 C          -1.0375    0.1470    0.6024 C.ar    1  UNL1       -0.0279
     13 C           0.3508    0.0623    0.4393 C.ar    1  UNL1       -0.0124
     14 C           1.1922    1.1299    0.8006 C.ar    1  UNL1       -0.0299
     15 C           2.5734    0.9833    0.6111 C.ar    1  UNL1        0.0481
     16 N           3.6009    1.8709    0.8805 N.ar    1  UNL1       -0.3541
     17 C           4.8239    1.3310    0.5434 C.ar    1  UNL1        0.0497
     18 C           6.1252    1.8559    0.6375 C.ar    1  UNL1       -0.0356
     19 C           7.2160    1.0750    0.2139 C.ar    1  UNL1       -0.0315
     20 C           6.9342   -0.2162   -0.2910 C.ar    1  UNL1        0.1006
     21 N           7.8429   -1.1037   -0.7414 N.ar    1  UNL1       -0.1908
     22 S           6.9878   -2.4638   -1.2210 S.2     1  UNL1        0.1165
     23 N           5.4179   -1.9851   -0.8768 N.ar    1  UNL1       -0.1901
     24 C           5.5913   -0.7655   -0.3912 C.ar    1  UNL1        0.1096
     25 C           4.5213    0.0747    0.0547 C.ar    1  UNL1        0.0355
     26 C           3.1400   -0.1788    0.0799 C.ar    1  UNL1        0.0102
     27 C           2.2888   -1.2428   -0.2772 C.ar    1  UNL1       -0.0428
     28 C           0.8973   -1.1176   -0.0952 C.ar    1  UNL1        0.0010
     29 C           0.0089   -2.1405   -0.4272 C.ar    1  UNL1        0.0360
     30 N          -1.3343   -2.0755   -0.2743 N.ar    1  UNL1       -0.2543
     31 H          -6.5852    2.4234   -2.2267 H       1  UNL1        0.0618
     32 H          -4.1647    2.4207   -2.7699 H       1  UNL1        0.0618
     33 H          -2.6400    0.9029   -1.6139 H       1  UNL1        0.0624
     34 H          -3.2435   -2.4808    1.8665 H       1  UNL1        0.0624
     35 H          -5.6694   -2.4631    2.3101 H       1  UNL1        0.0618
     36 H          -7.1380   -0.8911    1.1172 H       1  UNL1        0.0624
     37 H          -7.4671    0.8862   -0.5223 H       1  UNL1        0.0624
     38 H          -1.4941    1.0391    1.0215 H       1  UNL1        0.0645
     39 H           0.7851    2.0473    1.2162 H       1  UNL1        0.0644
     40 H           3.4681    2.7920    1.2727 H       1  UNL1        0.1659
     41 H           6.2970    2.8544    1.0325 H       1  UNL1        0.0639
     42 H           8.2346    1.4417    0.2694 H       1  UNL1        0.0640
     43 H           2.7113   -2.1553   -0.6907 H       1  UNL1        0.0631
     44 H           0.3654   -3.0805   -0.8417 H       1  UNL1        0.0836
@<TRIPOS>BOND
     1     1     2   ar
     2     2     3   ar
     3     3     4   ar
     4     4     5   ar
     5     5     6   ar
     6     6     7   ar
     7     7     8   ar
     8     8     9   ar
     9     9    10   ar
    10     5    11    1
    11    11    12   ar
    12    12    13   ar
    13    13    14   ar
    14    14    15   ar
    15    15    16   ar
    16    16    17   ar
    17    17    18   ar
    18    18    19   ar
    19    19    20   ar
    20    20    21   ar
    21    21    22   ar
    22    22    23   ar
    23    23    24   ar
    24    24    25   ar
    25    25    26   ar
    26    26    27   ar
    27    27    28   ar
    28    28    29   ar
    29    29    30   ar
    30    10     1   ar
    31    30    11   ar
    32     9     4   ar
    33    28    13   ar
    34    26    15   ar
    35    25    17   ar
    36    24    20   ar
    37     1    31    1
    38     2    32    1
    39     3    33    1
    40     6    34    1
    41     7    35    1
    42     8    36    1
    43    10    37    1
    44    12    38    1
    45    14    39    1
    46    16    40    1
    47    18    41    1
    48    19    42    1
    49    27    43    1
    50    29    44    1
