@<TRIPOS>MOLECULE
*****
 46 51 0 0 0
SMALL
GASTEIGER

@<TRIPOS>ATOM
      1 C           6.8262   -1.4748    1.6882 C.ar    1  UNL1       -0.0612
      2 C           5.4746   -1.7754    1.7842 C.ar    1  UNL1       -0.0611
      3 C           4.5349   -0.9700    1.1365 C.ar    1  UNL1       -0.0534
      4 C           4.9179    0.1590    0.3734 C.ar    1  UNL1       -0.0087
      5 C           3.9908    1.0116   -0.2954 C.ar    1  UNL1        0.0080
      6 C           4.4746    2.1103   -1.0332 C.ar    1  UNL1       -0.0520
      7 C           5.8370    2.3794   -1.1146 C.ar    1  UNL1       -0.0605
      8 C           6.7436    1.5543   -0.4568 C.ar    1  UNL1       -0.0540
      9 C           6.3045    0.4487    0.2859 C.ar    1  UNL1       -0.0173
     10 C           7.2376   -0.3709    0.9433 C.ar    1  UNL1       -0.0540
     11 C           2.5373    0.7984   -0.2346 C.ar    1  UNL1        0.0716
     12 C           1.7029    1.6485    0.4812 C.ar    1  UNL1       -0.0351
     13 C           0.3296    1.3967    0.4910 C.ar    1  UNL1       -0.0490
     14 C          -0.2106    0.3040   -0.2042 C.ar    1  UNL1        0.0206
     15 C           0.7154   -0.4752   -0.8969 C.ar    1  UNL1        0.0375
     16 N           2.0570   -0.2590   -0.9272 N.ar    1  UNL1       -0.2543
     17 C          -1.6532    0.0467   -0.2010 C.ar    1  UNL1        0.1005
     18 N          -2.4940    1.1154    0.0131 N.ar    1  UNL1       -0.2520
     19 C          -3.8575    0.9720    0.0338 C.ar    1  UNL1        0.0382
     20 C          -4.6071   -0.1977   -0.1361 C.ar    1  UNL1        0.0299
     21 C          -6.0673   -0.2460   -0.1049 C.ar    1  UNL1        0.0038
     22 C          -6.7731   -1.1778    0.6674 C.ar    1  UNL1       -0.0510
     23 C          -8.1674   -1.1756    0.6805 C.ar    1  UNL1       -0.0430
     24 C          -8.8299   -0.2305   -0.0816 C.ar    1  UNL1        0.0276
     25 N          -8.1998    0.6900   -0.8388 N.ar    1  UNL1       -0.2627
     26 C          -6.8453    0.6556   -0.8354 C.ar    1  UNL1        0.0354
     27 C          -3.7851   -1.3369   -0.3453 C.ar    1  UNL1        0.1111
     28 N          -4.2085   -2.5998   -0.5405 N.ar    1  UNL1       -0.1900
     29 S          -2.8665   -3.5472   -0.7259 S.2     1  UNL1        0.1166
     30 N          -1.6726   -2.4138   -0.5713 N.ar    1  UNL1       -0.1886
     31 C          -2.2717   -1.2242   -0.3784 C.ar    1  UNL1        0.1264
     32 H           7.5613   -2.0996    2.1878 H       1  UNL1        0.0618
     33 H           5.1449   -2.6380    2.3568 H       1  UNL1        0.0618
     34 H           3.4848   -1.2428    1.2243 H       1  UNL1        0.0624
     35 H           3.7770    2.7579   -1.5616 H       1  UNL1        0.0624
     36 H           6.1919    3.2280   -1.6931 H       1  UNL1        0.0618
     37 H           7.8054    1.7797   -0.5321 H       1  UNL1        0.0624
     38 H           8.3017   -0.1540    0.8779 H       1  UNL1        0.0624
     39 H           2.1084    2.4934    1.0288 H       1  UNL1        0.0639
     40 H          -0.3219    2.0653    1.0515 H       1  UNL1        0.0625
     41 H           0.4126   -1.3302   -1.4958 H       1  UNL1        0.0836
     42 H          -4.3717    1.9170    0.2201 H       1  UNL1        0.0836
     43 H          -6.2448   -1.9154    1.2683 H       1  UNL1        0.0625
     44 H          -8.7207   -1.8963    1.2723 H       1  UNL1        0.0633
     45 H          -9.9150   -0.1881   -0.1044 H       1  UNL1        0.0829
     46 H          -6.3882    1.4073   -1.4754 H       1  UNL1        0.0836
@<TRIPOS>BOND
     1     1     2   ar
     2     2     3   ar
     3     3     4   ar
     4     4     5   ar
     5     5     6   ar
     6     6     7   ar
     7     7     8   ar
     8     8     9   ar
     9     9    10   ar
    10     5    11    1
    11    11    12   ar
    12    12    13   ar
    13    13    14   ar
    14    14    15   ar
    15    15    16   ar
    16    14    17    1
    17    17    18   ar
    18    18    19   ar
    19    19    20   ar
    20    20    21    1
    21    21    22   ar
    22    22    23   ar
    23    23    24   ar
    24    24    25   ar
    25    25    26   ar
    26    20    27   ar
    27    27    28   ar
    28    28    29   ar
    29    29    30   ar
    30    30    31   ar
    31    10     1   ar
    32    16    11   ar
    33    31    17   ar
    34     9     4   ar
    35    26    21   ar
    36    31    27   ar
    37     1    32    1
    38     2    33    1
    39     3    34    1
    40     6    35    1
    41     7    36    1
    42     8    37    1
    43    10    38    1
    44    12    39    1
    45    13    40    1
    46    15    41    1
    47    19    42    1
    48    22    43    1
    49    23    44    1
    50    24    45    1
    51    26    46    1
