@<TRIPOS>MOLECULE
*****
 36 40 0 0 0
SMALL
GASTEIGER

@<TRIPOS>ATOM
      1 C          -4.6745    1.4539   -1.7707 C.ar    1  UNL1       -0.0612
      2 C          -3.3341    1.7088   -2.0264 C.ar    1  UNL1       -0.0611
      3 C          -2.3475    0.9616   -1.3790 C.ar    1  UNL1       -0.0534
      4 C          -2.6736   -0.0630   -0.4582 C.ar    1  UNL1       -0.0101
      5 C          -1.6995   -0.8499    0.2227 C.ar    1  UNL1       -0.0087
      6 C          -2.1198   -1.8444    1.1253 C.ar    1  UNL1       -0.0534
      7 C          -3.4714   -2.0728    1.3605 C.ar    1  UNL1       -0.0606
      8 C          -4.4274   -1.3093    0.6972 C.ar    1  UNL1       -0.0540
      9 C          -4.0484   -0.3076   -0.2084 C.ar    1  UNL1       -0.0173
     10 C          -5.0285    0.4530   -0.8676 C.ar    1  UNL1       -0.0540
     11 C          -0.2564   -0.6640    0.0181 C.ar    1  UNL1        0.0028
     12 C           0.4139   -1.3066   -1.0260 C.ar    1  UNL1        0.0361
     13 N           1.7338   -1.2106   -1.3118 N.ar    1  UNL1       -0.2522
     14 C           2.4365   -0.4035   -0.4776 C.ar    1  UNL1        0.0976
     15 C           1.8531    0.2740    0.5892 C.ar    1  UNL1        0.0666
     16 C           0.4899    0.1612    0.8678 C.ar    1  UNL1       -0.0271
     17 N           2.8516    0.9875    1.2069 N.ar    1  UNL1       -0.3528
     18 C           4.0561    0.7885    0.5703 C.ar    1  UNL1        0.0519
     19 C           5.3235    1.3003    0.8408 C.ar    1  UNL1       -0.0196
     20 C           6.3222    0.8767   -0.0244 C.ar    1  UNL1        0.0295
     21 N           6.1421    0.0348   -1.0660 N.ar    1  UNL1       -0.2625
     22 C           4.8973   -0.4505   -1.3091 C.ar    1  UNL1        0.0388
     23 C           3.8215   -0.0841   -0.4942 C.ar    1  UNL1        0.0437
     24 H          -5.4457    2.0321   -2.2728 H       1  UNL1        0.0618
     25 H          -3.0505    2.4875   -2.7297 H       1  UNL1        0.0618
     26 H          -1.3082    1.1924   -1.6056 H       1  UNL1        0.0624
     27 H          -1.3832   -2.4513    1.6496 H       1  UNL1        0.0624
     28 H          -3.7804   -2.8463    2.0589 H       1  UNL1        0.0618
     29 H          -5.4799   -1.5038    0.8937 H       1  UNL1        0.0624
     30 H          -6.0848    0.2692   -0.6813 H       1  UNL1        0.0624
     31 H          -0.1358   -1.9568   -1.7051 H       1  UNL1        0.0836
     32 H           0.0286    0.6892    1.6959 H       1  UNL1        0.0645
     33 H           2.7202    1.5773    2.0162 H       1  UNL1        0.1660
     34 H           5.5248    1.9772    1.6605 H       1  UNL1        0.0653
     35 H           7.3448    1.2224    0.1062 H       1  UNL1        0.0830
     36 H           4.7898   -1.1231   -2.1526 H       1  UNL1        0.0837
@<TRIPOS>BOND
     1     1     2   ar
     2     2     3   ar
     3     3     4   ar
     4     4     5   ar
     5     5     6   ar
     6     6     7   ar
     7     7     8   ar
     8     8     9   ar
     9     9    10   ar
    10     5    11    1
    11    11    12   ar
    12    12    13   ar
    13    13    14   ar
    14    14    15   ar
    15    15    16   ar
    16    15    17   ar
    17    17    18   ar
    18    18    19   ar
    19    19    20   ar
    20    20    21   ar
    21    21    22   ar
    22    22    23   ar
    23    10     1   ar
    24    16    11   ar
    25    23    18   ar
    26     9     4   ar
    27    23    14   ar
    28     1    24    1
    29     2    25    1
    30     3    26    1
    31     6    27    1
    32     7    28    1
    33     8    29    1
    34    10    30    1
    35    12    31    1
    36    16    32    1
    37    17    33    1
    38    19    34    1
    39    20    35    1
    40    22    36    1
