@<TRIPOS>MOLECULE
*****
 49 55 0 0 0
SMALL
GASTEIGER

@<TRIPOS>ATOM
      1 C           6.3825    0.1454   -2.3317 C.ar    1  UNL1       -0.0612
      2 C           5.0322    0.3669   -2.5647 C.ar    1  UNL1       -0.0611
      3 C           4.1064    0.1677   -1.5380 C.ar    1  UNL1       -0.0534
      4 C           4.5047   -0.2604   -0.2487 C.ar    1  UNL1       -0.0101
      5 C           3.5944   -0.4771    0.8269 C.ar    1  UNL1       -0.0087
      6 C           4.0866   -0.8940    2.0776 C.ar    1  UNL1       -0.0534
      7 C           5.4470   -1.1023    2.2787 C.ar    1  UNL1       -0.0606
      8 C           6.3401   -0.8964    1.2316 C.ar    1  UNL1       -0.0540
      9 C           5.8892   -0.4781   -0.0287 C.ar    1  UNL1       -0.0173
     10 C           6.8074   -0.2736   -1.0721 C.ar    1  UNL1       -0.0540
     11 C           2.1480   -0.2836    0.6820 C.ar    1  UNL1        0.0014
     12 C           1.3230   -1.2634    0.1654 C.ar    1  UNL1        0.0360
     13 N          -0.0197   -1.1316    0.0115 N.ar    1  UNL1       -0.2536
     14 C          -0.6621    0.0075    0.3691 C.ar    1  UNL1        0.0822
     15 C           0.1283    1.0401    0.9045 C.ar    1  UNL1        0.0197
     16 C          -0.4917    2.2063    1.2757 C.ar    1  UNL1        0.0375
     17 N          -1.8063    2.4054    1.1532 N.ar    1  UNL1       -0.2521
     18 C          -2.6025    1.4411    0.6444 C.ar    1  UNL1        0.0995
     19 C          -3.9640    1.7402    0.5547 C.ar    1  UNL1        0.0975
     20 N          -4.3963    2.9599    0.9771 N.ar    1  UNL1       -0.2528
     21 C          -5.6966    3.2914    0.9097 C.ar    1  UNL1        0.0284
     22 C          -6.6537    2.4441    0.4228 C.ar    1  UNL1       -0.0430
     23 C          -6.2336    1.1945   -0.0134 C.ar    1  UNL1       -0.0505
     24 C          -4.8697    0.7934    0.0358 C.ar    1  UNL1        0.0102
     25 C          -4.4016   -0.4821   -0.4035 C.ar    1  UNL1       -0.0080
     26 C          -5.2866   -1.4646   -0.9337 C.ar    1  UNL1       -0.0534
     27 C          -4.8617   -2.7154   -1.3697 C.ar    1  UNL1       -0.0611
     28 C          -3.5257   -3.0274   -1.2889 C.ar    1  UNL1       -0.0611
     29 C          -2.6342   -2.0849   -0.7737 C.ar    1  UNL1       -0.0533
     30 C          -3.0167   -0.7907   -0.3138 C.ar    1  UNL1       -0.0060
     31 C          -2.0856    0.1910    0.2232 C.ar    1  UNL1        0.0361
     32 C           1.5191    0.8953    1.0604 C.ar    1  UNL1       -0.0419
     33 H           7.1065    0.2992   -3.1274 H       1  UNL1        0.0618
     34 H           4.6938    0.6959   -3.5439 H       1  UNL1        0.0618
     35 H           3.0579    0.3562   -1.7607 H       1  UNL1        0.0624
     36 H           3.4003   -1.0624    2.9062 H       1  UNL1        0.0624
     37 H           5.8116   -1.4259    3.2502 H       1  UNL1        0.0618
     38 H           7.4006   -1.0653    1.4085 H       1  UNL1        0.0624
     39 H           7.8705   -0.4398   -0.9097 H       1  UNL1        0.0624
     40 H           1.7229   -2.2221   -0.1569 H       1  UNL1        0.0836
     41 H           0.0543    3.0464    1.6955 H       1  UNL1        0.0836
     42 H          -5.9431    4.2851    1.2701 H       1  UNL1        0.0830
     43 H          -7.6954    2.7383    0.3804 H       1  UNL1        0.0633
     44 H          -7.0064    0.5359   -0.3963 H       1  UNL1        0.0625
     45 H          -6.3524   -1.2759   -1.0223 H       1  UNL1        0.0624
     46 H          -5.5742   -3.4325   -1.7669 H       1  UNL1        0.0618
     47 H          -3.1614   -3.9957   -1.6209 H       1  UNL1        0.0618
     48 H          -1.5999   -2.4106   -0.7448 H       1  UNL1        0.0624
     49 H           2.1138    1.7082    1.4741 H       1  UNL1        0.0631
@<TRIPOS>BOND
     1     1     2   ar
     2     2     3   ar
     3     3     4   ar
     4     4     5   ar
     5     5     6   ar
     6     6     7   ar
     7     7     8   ar
     8     8     9   ar
     9     9    10   ar
    10     5    11    1
    11    11    12   ar
    12    12    13   ar
    13    13    14   ar
    14    14    15   ar
    15    15    16   ar
    16    16    17   ar
    17    17    18   ar
    18    18    19   ar
    19    19    20   ar
    20    20    21   ar
    21    21    22   ar
    22    22    23   ar
    23    23    24   ar
    24    24    25   ar
    25    25    26   ar
    26    26    27   ar
    27    27    28   ar
    28    28    29   ar
    29    29    30   ar
    30    30    31   ar
    31    15    32   ar
    32    10     1   ar
    33    32    11   ar
    34     9     4   ar
    35    31    14   ar
    36    31    18   ar
    37    24    19   ar
    38    30    25   ar
    39     1    33    1
    40     2    34    1
    41     3    35    1
    42     6    36    1
    43     7    37    1
    44     8    38    1
    45    10    39    1
    46    12    40    1
    47    16    41    1
    48    21    42    1
    49    22    43    1
    50    23    44    1
    51    26    45    1
    52    27    46    1
    53    28    47    1
    54    29    48    1
    55    32    49    1
