@<TRIPOS>MOLECULE
*****
 25 27 0 0 0
SMALL
GASTEIGER

@<TRIPOS>ATOM
      1 C          -3.1689    1.6380   -0.2608 C.ar    1  UNL1       -0.0612
      2 C          -1.9707    2.3288   -0.2706 C.ar    1  UNL1       -0.0611
      3 C          -0.7612    1.6302   -0.1831 C.ar    1  UNL1       -0.0520
      4 C          -0.6897    0.2117   -0.0712 C.ar    1  UNL1        0.0075
      5 C           0.5003   -0.5962    0.0244 C.ar    1  UNL1        0.0730
      6 N           1.8229   -0.0408    0.1021 N.ar    1  UNL1       -0.2393
      7 C           3.0268   -0.7101   -0.0714 C.ar    1  UNL1        0.0312
      8 C           4.0425    0.1873    0.1530 C.ar    1  UNL1       -0.0238
      9 C           3.3846    1.3829    0.4514 C.ar    1  UNL1        0.0498
     10 N           2.0599    1.2581    0.4171 N.ar    1  UNL1       -0.1748
     11 C           0.3899   -2.0028    0.0689 C.ar    1  UNL1       -0.0357
     12 C          -0.8514   -2.6271    0.0412 C.ar    1  UNL1       -0.0592
     13 C          -2.0056   -1.8613   -0.0312 C.ar    1  UNL1       -0.0539
     14 C          -1.9442   -0.4635   -0.0891 C.ar    1  UNL1       -0.0159
     15 C          -3.1525    0.2504   -0.1747 C.ar    1  UNL1       -0.0540
     16 H          -4.1119    2.1726   -0.3274 H       1  UNL1        0.0618
     17 H          -1.9624    3.4128   -0.3483 H       1  UNL1        0.0618
     18 H           0.1378    2.2378   -0.2169 H       1  UNL1        0.0624
     19 H           3.0702   -1.7481   -0.3606 H       1  UNL1        0.0831
     20 H           5.1052    0.0010    0.0981 H       1  UNL1        0.0648
     21 H           3.8130    2.3480    0.6904 H       1  UNL1        0.0848
     22 H           1.2568   -2.6495    0.1660 H       1  UNL1        0.0639
     23 H          -0.9200   -3.7110    0.0888 H       1  UNL1        0.0618
     24 H          -2.9666   -2.3724   -0.0458 H       1  UNL1        0.0624
     25 H          -4.1047   -0.2769   -0.1799 H       1  UNL1        0.0624
@<TRIPOS>BOND
     1     1     2   ar
     2     2     3   ar
     3     3     4   ar
     4     4     5   ar
     5     5     6    1
     6     6     7   ar
     7     7     8   ar
     8     8     9   ar
     9     9    10   ar
    10     5    11   ar
    11    11    12   ar
    12    12    13   ar
    13    13    14   ar
    14    14    15   ar
    15    15     1   ar
    16    14     4   ar
    17    10     6   ar
    18     1    16    1
    19     2    17    1
    20     3    18    1
    21     7    19    1
    22     8    20    1
    23     9    21    1
    24    11    22    1
    25    12    23    1
    26    13    24    1
    27    15    25    1
