@<TRIPOS>MOLECULE
*****
 48 53 0 0 0
SMALL
GASTEIGER

@<TRIPOS>ATOM
      1 C          -4.4956    1.1691    2.0404 C.3     1  UNL1        0.0000
      2 C          -3.4207    1.9938    2.7539 C.2     1  UNL1        0.0000
      3 C          -2.2226    1.8772    2.1383 C.2     1  UNL1        0.0000
      4 C          -2.3490    1.0140    1.0169 C.ar    1  UNL1        0.0000
      5 C          -3.6935    0.5811    0.9272 C.ar    1  UNL1        0.0000
      6 C          -3.9371   -0.2508   -0.1395 C.ar    1  UNL1        0.0000
      7 S          -2.4573   -0.4709   -1.0163 S.2     1  UNL1        0.0000
      8 C          -1.5135    0.5365    0.0439 C.ar    1  UNL1        0.0000
      9 C          -0.1311    0.7205   -0.1822 C.2     1  UNL1        0.0000
     10 SI          1.1827    0.3496    1.1184 Si      1  UNL1        0.0000
     11 C           2.4662    0.8782   -0.1718 C.2     1  UNL1        0.0000
     12 C           1.8760    1.2447   -1.3276 C.2     1  UNL1        0.0000
     13 C           0.4223    1.1507   -1.3346 C.2     1  UNL1        0.0000
     14 C           3.8979    0.8766    0.1228 C.ar    1  UNL1        0.0000
     15 C           4.4453    2.0549    0.6554 C.ar    1  UNL1        0.0000
     16 C           5.7996    2.1309    0.9626 C.ar    1  UNL1        0.0000
     17 C           6.6242    1.0323    0.7345 C.ar    1  UNL1        0.0000
     18 C           6.1112   -0.1545    0.1893 C.ar    1  UNL1        0.0000
     19 C           6.9608   -1.2495   -0.0417 C.ar    1  UNL1        0.0000
     20 C           6.4729   -2.4351   -0.5891 C.ar    1  UNL1        0.0000
     21 C           5.1277   -2.5411   -0.9157 C.ar    1  UNL1        0.0000
     22 C           4.2700   -1.4620   -0.6914 C.ar    1  UNL1        0.0000
     23 C           4.7330   -0.2470   -0.1318 C.ar    1  UNL1        0.0000
     24 C          -5.1985   -0.8903   -0.5500 C.ar    1  UNL1        0.0000
     25 C          -5.3349   -1.7074   -1.6705 C.ar    1  UNL1        0.0000
     26 C          -6.5823   -2.2594   -1.9606 C.ar    1  UNL1        0.0000
     27 C          -7.6598   -1.9848   -1.1301 C.ar    1  UNL1        0.0000
     28 C          -7.4447   -1.1650   -0.0377 C.ar    1  UNL1        0.0000
     29 N          -6.2485   -0.6165    0.2679 N.ar    1  UNL1        0.0000
     30 H          -4.8971    0.4004    2.7065 H       1  UNL1        0.0000
     31 H          -5.2956    1.8166    1.6708 H       1  UNL1        0.0000
     32 H          -3.6169    2.5926    3.6304 H       1  UNL1        0.0000
     33 H          -1.3116    2.3725    2.4422 H       1  UNL1        0.0000
     34 H           1.1317    1.2896    2.2708 H       1  UNL1        0.0000
     35 H           1.2776   -1.0967    1.4480 H       1  UNL1        0.0000
     36 H           2.4148    1.5860   -2.2035 H       1  UNL1        0.0000
     37 H          -0.1389    1.4207   -2.2213 H       1  UNL1        0.0000
     38 H           3.8140    2.9233    0.8334 H       1  UNL1        0.0000
     39 H           6.2134    3.0460    1.3778 H       1  UNL1        0.0000
     40 H           7.6808    1.1120    0.9818 H       1  UNL1        0.0000
     41 H           8.0189   -1.1854    0.2037 H       1  UNL1        0.0000
     42 H           7.1442   -3.2718   -0.7621 H       1  UNL1        0.0000
     43 H           4.7406   -3.4606   -1.3468 H       1  UNL1        0.0000
     44 H           3.2239   -1.5790   -0.9660 H       1  UNL1        0.0000
     45 H          -4.4979   -1.9259   -2.3238 H       1  UNL1        0.0000
     46 H          -6.7073   -2.8988   -2.8300 H       1  UNL1        0.0000
     47 H          -8.6418   -2.3988   -1.3287 H       1  UNL1        0.0000
     48 H          -8.2535   -0.9182    0.6441 H       1  UNL1        0.0000
@<TRIPOS>BOND
     1     1     2    1
     2     2     3    2
     3     3     4    1
     4     4     5   ar
     5     5     6   ar
     6     6     7   ar
     7     7     8   ar
     8     8     9    1
     9     9    10    1
    10    10    11    1
    11    11    12    2
    12    12    13    1
    13    11    14    1
    14    14    15   ar
    15    15    16   ar
    16    16    17   ar
    17    17    18   ar
    18    18    19   ar
    19    19    20   ar
    20    20    21   ar
    21    21    22   ar
    22    22    23   ar
    23     6    24    1
    24    24    25   ar
    25    25    26   ar
    26    26    27   ar
    27    27    28   ar
    28    28    29   ar
    29     5     1    1
    30    13     9    2
    31    23    14   ar
    32    29    24   ar
    33     8     4   ar
    34    23    18   ar
    35     1    30    1
    36     1    31    1
    37     2    32    1
    38     3    33    1
    39    10    34    1
    40    10    35    1
    41    12    36    1
    42    13    37    1
    43    15    38    1
    44    16    39    1
    45    17    40    1
    46    19    41    1
    47    20    42    1
    48    21    43    1
    49    22    44    1
    50    25    45    1
    51    26    46    1
    52    27    47    1
    53    28    48    1
