@<TRIPOS>MOLECULE
*****
 39 43 0 0 0
SMALL
GASTEIGER

@<TRIPOS>ATOM
      1 C          -3.2249   -2.3074   -0.2466 C.3     1  UNL1        0.0000
      2 C          -2.1505   -3.3590   -0.5284 C.2     1  UNL1        0.0000
      3 C          -0.9262   -2.7942   -0.6272 C.2     1  UNL1        0.0000
      4 C          -1.0355   -1.3909   -0.4344 C.ar    1  UNL1        0.0000
      5 C          -2.3951   -1.0681   -0.2048 C.ar    1  UNL1        0.0000
      6 C          -2.5961    0.2700    0.0221 C.ar    1  UNL1        0.0000
      7 S          -1.0808    1.1019   -0.0688 S.2     1  UNL1        0.0000
      8 C          -0.1586   -0.3386   -0.3979 C.ar    1  UNL1        0.0000
      9 C           1.2415   -0.2911   -0.5955 C.2     1  UNL1        0.0000
     10 SI          2.4508    0.5913    0.5472 Si      1  UNL1        0.0000
     11 C           3.8434   -0.0287   -0.5771 C.2     1  UNL1        0.0000
     12 C           3.3427   -0.7636   -1.5921 C.2     1  UNL1        0.0000
     13 C           1.8926   -0.9149   -1.5985 C.2     1  UNL1        0.0000
     14 C           5.2131    0.2642   -0.3536 C.ar    1  UNL1        0.0000
     15 C           5.8035    1.4431    0.0793 C.ar    1  UNL1        0.0000
     16 C           7.2210    1.3563    0.2019 C.ar    1  UNL1        0.0000
     17 C           7.6885    0.1102   -0.1388 C.ar    1  UNL1        0.0000
     18 S           6.4280   -0.9409   -0.6038 S.2     1  UNL1        0.0000
     19 C          -3.8289    1.0105    0.2910 C.ar    1  UNL1        0.0000
     20 C          -5.0036    0.7492   -0.4084 C.ar    1  UNL1        0.0000
     21 C          -6.1484    1.4768   -0.0919 C.ar    1  UNL1        0.0000
     22 C          -6.0884    2.4374    0.9101 C.ar    1  UNL1        0.0000
     23 C          -4.8799    2.6325    1.5567 C.ar    1  UNL1        0.0000
     24 N          -3.7549    1.9421    1.2721 N.ar    1  UNL1        0.0000
     25 H          -3.7165   -2.5005    0.7110 H       1  UNL1        0.0000
     26 H          -3.9587   -2.2824   -1.0567 H       1  UNL1        0.0000
     27 H          -2.3586   -4.4141   -0.6254 H       1  UNL1        0.0000
     28 H          -0.0002   -3.3206   -0.8111 H       1  UNL1        0.0000
     29 H           2.5194   -0.0122    1.9045 H       1  UNL1        0.0000
     30 H           2.3447    2.0748    0.5078 H       1  UNL1        0.0000
     31 H           3.9373   -1.2200   -2.3746 H       1  UNL1        0.0000
     32 H           1.4092   -1.4924   -2.3775 H       1  UNL1        0.0000
     33 H           5.2446    2.3470    0.2923 H       1  UNL1        0.0000
     34 H           7.8620    2.1686    0.5214 H       1  UNL1        0.0000
     35 H           8.7128   -0.2361   -0.1394 H       1  UNL1        0.0000
     36 H          -5.0322    0.0070   -1.1981 H       1  UNL1        0.0000
     37 H          -7.0770    1.2980   -0.6265 H       1  UNL1        0.0000
     38 H          -6.9605    3.0225    1.1796 H       1  UNL1        0.0000
     39 H          -4.7796    3.3722    2.3459 H       1  UNL1        0.0000
@<TRIPOS>BOND
     1     1     2    1
     2     2     3    2
     3     3     4    1
     4     4     5   ar
     5     5     6   ar
     6     6     7   ar
     7     7     8   ar
     8     8     9    1
     9     9    10    1
    10    10    11    1
    11    11    12    2
    12    12    13    1
    13    11    14    1
    14    14    15   ar
    15    15    16   ar
    16    16    17   ar
    17    17    18   ar
    18     6    19    1
    19    19    20   ar
    20    20    21   ar
    21    21    22   ar
    22    22    23   ar
    23    23    24   ar
    24     5     1    1
    25    13     9    2
    26    18    14   ar
    27    24    19   ar
    28     8     4   ar
    29     1    25    1
    30     1    26    1
    31     2    27    1
    32     3    28    1
    33    10    29    1
    34    10    30    1
    35    12    31    1
    36    13    32    1
    37    15    33    1
    38    16    34    1
    39    17    35    1
    40    20    36    1
    41    21    37    1
    42    22    38    1
    43    23    39    1
