@<TRIPOS>MOLECULE
*****
 48 53 0 0 0
SMALL
GASTEIGER

@<TRIPOS>ATOM
      1 C          -2.3672    0.6797   -2.8826 C.3     1  UNL1       -0.0075
      2 C          -1.3140    0.2582   -3.9079 C.2     1  UNL1       -0.0791
      3 C          -0.1389   -0.0437   -3.3102 C.2     1  UNL1       -0.0568
      4 C          -0.2609    0.1254   -1.9037 C.ar    1  UNL1       -0.0068
      5 C          -1.5775    0.5682   -1.6241 C.ar    1  UNL1       -0.0211
      6 C          -1.7920    0.7884   -0.2917 C.ar    1  UNL1        0.0245
      7 S          -0.3560    0.4588    0.6002 S.2     1  UNL1       -0.0877
      8 C           0.5581   -0.0173   -0.8115 C.ar    1  UNL1        0.0237
      9 C           1.9099   -0.4380   -0.6573 C.2     1  UNL1       -0.0287
     10 C           2.9066   -0.0865    0.4327 C.3     1  UNL1        0.0007
     11 C           4.1341   -0.8527    0.0227 C.2     1  UNL1       -0.0177
     12 C           3.8673   -1.5339   -1.1039 C.2     1  UNL1       -0.0559
     13 C           2.5089   -1.2853   -1.5144 C.2     1  UNL1       -0.0569
     14 C           5.3996   -0.8391    0.7569 C.ar    1  UNL1        0.0673
     15 C           5.5670   -0.1050    1.9285 C.ar    1  UNL1       -0.0360
     16 C           6.8000   -0.1358    2.5787 C.ar    1  UNL1       -0.0583
     17 C           7.8324   -0.8954    2.0459 C.ar    1  UNL1       -0.0436
     18 C           7.5870   -1.5959    0.8791 C.ar    1  UNL1        0.0282
     19 N           6.4028   -1.5835    0.2291 N.ar    1  UNL1       -0.2553
     20 C          -3.0002    1.2432    0.3972 C.ar    1  UNL1       -0.0033
     21 C          -3.0819    2.5994    0.7538 C.ar    1  UNL1       -0.0529
     22 C          -4.2156    3.0988    1.3855 C.ar    1  UNL1       -0.0606
     23 C          -5.2828    2.2487    1.6643 C.ar    1  UNL1       -0.0540
     24 C          -5.2334    0.8891    1.3192 C.ar    1  UNL1       -0.0173
     25 C          -6.3212    0.0481    1.6087 C.ar    1  UNL1       -0.0540
     26 C          -6.2915   -1.3058    1.2776 C.ar    1  UNL1       -0.0612
     27 C          -5.1716   -1.8387    0.6538 C.ar    1  UNL1       -0.0611
     28 C          -4.0823   -1.0162    0.3589 C.ar    1  UNL1       -0.0534
     29 C          -4.0831    0.3635    0.6779 C.ar    1  UNL1       -0.0097
     30 H          -2.6997    1.7052   -3.0654 H       1  UNL1        0.0356
     31 H          -3.2177   -0.0074   -2.8936 H       1  UNL1        0.0356
     32 H          -1.4992    0.2220   -4.9710 H       1  UNL1        0.0575
     33 H           0.7608   -0.3511   -3.8231 H       1  UNL1        0.0621
     34 H           2.5473   -0.4162    1.4136 H       1  UNL1        0.0362
     35 H           3.0947    0.9927    0.4461 H       1  UNL1        0.0362
     36 H           4.5535   -2.1773   -1.6356 H       1  UNL1        0.0621
     37 H           2.0742   -1.7543   -2.3834 H       1  UNL1        0.0621
     38 H           4.7617    0.4883    2.3469 H       1  UNL1        0.0639
     39 H           6.9500    0.4295    3.4941 H       1  UNL1        0.0619
     40 H           8.8028   -0.9411    2.5267 H       1  UNL1        0.0633
     41 H           8.3590   -2.2060    0.4192 H       1  UNL1        0.0830
     42 H          -2.2557    3.2726    0.5339 H       1  UNL1        0.0624
     43 H          -4.2691    4.1491    1.6590 H       1  UNL1        0.0618
     44 H          -6.1615    2.6586    2.1584 H       1  UNL1        0.0624
     45 H          -7.2070    0.4450    2.1004 H       1  UNL1        0.0624
     46 H          -7.1410   -1.9421    1.5106 H       1  UNL1        0.0618
     47 H          -5.1386   -2.8943    0.3975 H       1  UNL1        0.0618
     48 H          -3.2182   -1.4701   -0.1228 H       1  UNL1        0.0624
@<TRIPOS>BOND
     1     1     2    1
     2     2     3    2
     3     3     4    1
     4     4     5   ar
     5     5     6   ar
     6     6     7   ar
     7     7     8   ar
     8     8     9    1
     9     9    10    1
    10    10    11    1
    11    11    12    2
    12    12    13    1
    13    11    14    1
    14    14    15   ar
    15    15    16   ar
    16    16    17   ar
    17    17    18   ar
    18    18    19   ar
    19     6    20    1
    20    20    21   ar
    21    21    22   ar
    22    22    23   ar
    23    23    24   ar
    24    24    25   ar
    25    25    26   ar
    26    26    27   ar
    27    27    28   ar
    28    28    29   ar
    29     5     1    1
    30    13     9    2
    31    19    14   ar
    32    29    20   ar
    33     8     4   ar
    34    29    24   ar
    35     1    30    1
    36     1    31    1
    37     2    32    1
    38     3    33    1
    39    10    34    1
    40    10    35    1
    41    12    36    1
    42    13    37    1
    43    15    38    1
    44    16    39    1
    45    17    40    1
    46    18    41    1
    47    21    42    1
    48    22    43    1
    49    23    44    1
    50    25    45    1
    51    26    46    1
    52    27    47    1
    53    28    48    1
