@<TRIPOS>MOLECULE
*****
 38 42 0 0 0
SMALL
GASTEIGER

@<TRIPOS>ATOM
      1 C           3.5519   -0.9950   -1.8956 C.3     1  UNL1       -0.0074
      2 C           2.2841   -1.3521   -2.6669 C.2     1  UNL1       -0.0790
      3 C           1.1768   -0.9880   -1.9843 C.2     1  UNL1       -0.0568
      4 C           1.5510   -0.3823   -0.7531 C.ar    1  UNL1       -0.0067
      5 C           2.9696   -0.3708   -0.6687 C.ar    1  UNL1       -0.0191
      6 C           3.4349    0.1977    0.4917 C.ar    1  UNL1        0.0489
      7 S           2.0835    0.7044    1.4497 S.2     1  UNL1       -0.0856
      8 C           0.8800    0.1634    0.3124 C.ar    1  UNL1        0.0237
      9 C          -0.5243    0.3079    0.5416 C.2     1  UNL1       -0.0287
     10 C          -1.6717   -0.1149   -0.3558 C.3     1  UNL1       -0.0007
     11 C          -2.8970    0.3002    0.4234 C.2     1  UNL1       -0.0344
     12 C          -2.4958    0.8652    1.5741 C.2     1  UNL1       -0.0574
     13 C          -1.0560    0.8693    1.6444 C.2     1  UNL1       -0.0569
     14 C          -4.2681    0.0896   -0.0581 C.ar    1  UNL1       -0.0034
     15 C          -5.3897    0.4836    0.6806 C.ar    1  UNL1       -0.0514
     16 C          -6.6764    0.2649    0.1863 C.ar    1  UNL1       -0.0430
     17 C          -6.8130   -0.3479   -1.0457 C.ar    1  UNL1        0.0276
     18 N          -5.7683   -0.7465   -1.7972 N.ar    1  UNL1       -0.2627
     19 C          -4.5315   -0.5187   -1.2868 C.ar    1  UNL1        0.0350
     20 C           4.7861    0.4033    0.9625 C.ar    1  UNL1        0.1151
     21 N           5.0562    0.9756    2.1210 N.ar    1  UNL1       -0.2468
     22 C           6.4199    1.0449    2.3192 C.ar    1  UNL1        0.0355
     23 C           7.1921    0.5231    1.3072 C.ar    1  UNL1       -0.0042
     24 S           6.1792   -0.0750    0.0646 S.2     1  UNL1       -0.0752
     25 H           4.1244   -1.8973   -1.6634 H       1  UNL1        0.0356
     26 H           4.1591   -0.2868   -2.4662 H       1  UNL1        0.0356
     27 H           2.2898   -1.8340   -3.6334 H       1  UNL1        0.0575
     28 H           0.1630   -1.1362   -2.3255 H       1  UNL1        0.0621
     29 H          -1.6207    0.4087   -1.3169 H       1  UNL1        0.0362
     30 H          -1.6553   -1.1987   -0.5153 H       1  UNL1        0.0362
     31 H          -3.1135    1.2707    2.3606 H       1  UNL1        0.0621
     32 H          -0.5290    1.2811    2.4930 H       1  UNL1        0.0621
     33 H          -5.2854    0.9651    1.6484 H       1  UNL1        0.0624
     34 H          -7.5498    0.5675    0.7531 H       1  UNL1        0.0633
     35 H          -7.7933   -0.5394   -1.4722 H       1  UNL1        0.0829
     36 H          -3.7312   -0.8612   -1.9367 H       1  UNL1        0.0835
     37 H           6.7998    1.4913    3.2301 H       1  UNL1        0.0835
     38 H           8.2689    0.4671    1.2418 H       1  UNL1        0.0709
@<TRIPOS>BOND
     1     1     2    1
     2     2     3    2
     3     3     4    1
     4     4     5   ar
     5     5     6   ar
     6     6     7   ar
     7     7     8   ar
     8     8     9    1
     9     9    10    1
    10    10    11    1
    11    11    12    2
    12    12    13    1
    13    11    14    1
    14    14    15   ar
    15    15    16   ar
    16    16    17   ar
    17    17    18   ar
    18    18    19   ar
    19     6    20    1
    20    20    21   ar
    21    21    22   ar
    22    22    23   ar
    23    23    24   ar
    24     5     1    1
    25    13     9    2
    26    19    14   ar
    27    24    20   ar
    28     8     4   ar
    29     1    25    1
    30     1    26    1
    31     2    27    1
    32     3    28    1
    33    10    29    1
    34    10    30    1
    35    12    31    1
    36    13    32    1
    37    15    33    1
    38    16    34    1
    39    17    35    1
    40    19    36    1
    41    22    37    1
    42    23    38    1
