@<TRIPOS>MOLECULE
*****
 47 54 0 0 0
SMALL
GASTEIGER

@<TRIPOS>ATOM
      1 SI         -1.9300   -4.3871   -0.3028 Si      1  UNL1        0.0000
      2 C          -3.4045   -3.3027   -0.0102 C.2     1  UNL1        0.0000
      3 C          -3.0704   -1.9947    0.0550 C.ar    1  UNL1        0.0000
      4 C          -4.0479   -0.8978    0.2204 C.ar    1  UNL1        0.0000
      5 C          -5.3923   -1.1512    0.5628 C.ar    1  UNL1        0.0000
      6 C          -6.2835   -0.1103    0.8047 C.ar    1  UNL1        0.0000
      7 C          -5.8321    1.1963    0.7425 C.ar    1  UNL1        0.0000
      8 C          -4.5004    1.4575    0.4059 C.ar    1  UNL1        0.0000
      9 C          -3.5852    0.4332    0.0809 C.ar    1  UNL1        0.0000
     10 C          -2.1634    0.7048   -0.2641 C.ar    1  UNL1        0.0000
     11 C          -1.6347    1.9537   -0.6698 C.ar    1  UNL1        0.0000
     12 C          -2.2793    3.0808   -1.1233 C.ar    1  UNL1        0.0000
     13 O          -1.3800    4.0714   -1.4037 O.2     1  UNL1        0.0000
     14 C          -0.1345    3.5685   -1.1683 C.ar    1  UNL1        0.0000
     15 C          -0.2423    2.2669   -0.7584 C.ar    1  UNL1        0.0000
     16 C           0.7762    1.3841   -0.4586 C.ar    1  UNL1        0.0000
     17 C           2.2072    1.6566   -0.4278 C.2     1  UNL1        0.0000
     18 C           2.9563    0.5921   -0.0640 C.2     1  UNL1        0.0000
     19 SI          1.8724   -0.9125    0.2565 Si      1  UNL1        0.0000
     20 C           0.2900    0.0691   -0.1669 C.ar    1  UNL1        0.0000
     21 C          -1.1133   -0.3007   -0.1574 C.ar    1  UNL1        0.0000
     22 C          -1.6181   -1.7121   -0.1059 C.ar    1  UNL1        0.0000
     23 C          -0.9020   -2.8302   -0.3583 C.2     1  UNL1        0.0000
     24 C           4.4145    0.6224    0.0456 C.ar    1  UNL1        0.0000
     25 N           5.0446    1.8101   -0.2635 N.ar    1  UNL1        0.0000
     26 C           6.4035    1.9558   -0.1958 C.ar    1  UNL1        0.0000
     27 C           7.3320    0.9937    0.1736 C.ar    1  UNL1        0.0000
     28 C           6.7508   -0.2433    0.5026 C.ar    1  UNL1        0.0000
     29 N           7.4338   -1.3319    0.8910 N.ar    1  UNL1        0.0000
     30 S           6.3130   -2.5208    1.1632 S.2     1  UNL1        0.0000
     31 N           4.9140   -1.7128    0.7993 N.ar    1  UNL1        0.0000
     32 C           5.2543   -0.4590    0.4447 C.ar    1  UNL1        0.0000
     33 H          -1.6017   -5.2398    0.8647 H       1  UNL1        0.0000
     34 H          -1.9771   -5.0816   -1.6116 H       1  UNL1        0.0000
     35 H          -4.3835   -3.7468    0.0519 H       1  UNL1        0.0000
     36 H          -5.7624   -2.1662    0.6705 H       1  UNL1        0.0000
     37 H          -7.3141   -0.3237    1.0740 H       1  UNL1        0.0000
     38 H          -6.5042    2.0180    0.9763 H       1  UNL1        0.0000
     39 H          -4.1896    2.4954    0.4563 H       1  UNL1        0.0000
     40 H          -3.3061    3.3485   -1.3249 H       1  UNL1        0.0000
     41 H           0.6859    4.2447   -1.3616 H       1  UNL1        0.0000
     42 H           2.6068    2.6340   -0.6669 H       1  UNL1        0.0000
     43 H           1.8768   -1.3334    1.6817 H       1  UNL1        0.0000
     44 H           2.1485   -1.9845   -0.7367 H       1  UNL1        0.0000
     45 H           0.1279   -2.9427   -0.6317 H       1  UNL1        0.0000
     46 H           6.7473    2.9530   -0.4709 H       1  UNL1        0.0000
     47 H           8.3965    1.1749    0.2064 H       1  UNL1        0.0000
@<TRIPOS>BOND
     1     1     2    1
     2     2     3    2
     3     3     4   ar
     4     4     5   ar
     5     5     6   ar
     6     6     7   ar
     7     7     8   ar
     8     8     9   ar
     9     9    10   ar
    10    10    11   ar
    11    11    12   ar
    12    12    13   ar
    13    13    14   ar
    14    14    15   ar
    15    15    16   ar
    16    16    17    1
    17    17    18    2
    18    18    19    1
    19    19    20    1
    20    20    21   ar
    21    21    22   ar
    22    22    23    2
    23    18    24    1
    24    24    25   ar
    25    25    26   ar
    26    26    27   ar
    27    27    28   ar
    28    28    29   ar
    29    29    30   ar
    30    30    31   ar
    31    31    32   ar
    32    23     1    1
    33    32    24   ar
    34    22     3   ar
    35    32    28   ar
    36     9     4   ar
    37    21    10   ar
    38    15    11   ar
    39    20    16   ar
    40     1    33    1
    41     1    34    1
    42     2    35    1
    43     5    36    1
    44     6    37    1
    45     7    38    1
    46     8    39    1
    47    12    40    1
    48    14    41    1
    49    17    42    1
    50    19    43    1
    51    19    44    1
    52    23    45    1
    53    26    46    1
    54    27    47    1
