@<TRIPOS>MOLECULE
*****
 38 43 0 0 0
SMALL
GASTEIGER

@<TRIPOS>ATOM
      1 C           3.6064   -2.0676    1.0436 C.3     1  UNL1       -0.0075
      2 C           2.2768   -2.7260    1.3893 C.2     1  UNL1       -0.0790
      3 C           1.2342   -1.9607    0.9993 C.2     1  UNL1       -0.0568
      4 C           1.7129   -0.7707    0.3831 C.ar    1  UNL1       -0.0050
      5 C           3.1380   -0.8056    0.3945 C.ar    1  UNL1       -0.0205
      6 C           3.7203    0.2999   -0.1789 C.ar    1  UNL1        0.0321
      7 S           2.4679    1.3647   -0.7225 S.2     1  UNL1       -0.0853
      8 C           1.1680    0.3474   -0.1914 C.ar    1  UNL1        0.0435
      9 C          -0.2026    0.7472   -0.3914 C.ar    1  UNL1        0.0542
     10 C          -0.7235    1.8880   -0.9790 C.ar    1  UNL1       -0.0353
     11 C          -2.1377    1.8077   -0.9307 C.ar    1  UNL1       -0.0352
     12 C          -2.4714    0.6193   -0.3145 C.ar    1  UNL1        0.0572
     13 N          -1.2849   -0.0033    0.0021 N.ar    1  UNL1       -0.3532
     14 C          -3.7490    0.0494   -0.0138 C.ar    1  UNL1        0.0783
     15 S          -3.9725   -1.4839    0.7807 S.2     1  UNL1       -0.0909
     16 C          -5.7087   -1.3852    0.7372 C.ar    1  UNL1       -0.0128
     17 C          -6.0352   -0.2222    0.1367 C.ar    1  UNL1        0.0278
     18 C          -7.1701    0.5122   -0.2384 C.ar    1  UNL1       -0.0156
     19 C          -6.6650    1.6712   -0.8405 C.ar    1  UNL1        0.0932
     20 O          -5.2845    1.7357   -0.8799 O.2     1  UNL1       -0.4617
     21 C          -4.9764    0.5549   -0.2701 C.ar    1  UNL1        0.1509
     22 C           5.1269    0.5991   -0.3401 C.ar    1  UNL1        0.0456
     23 C           6.2177   -0.1635    0.0498 C.ar    1  UNL1        0.0430
     24 N           7.4716    0.3538   -0.2237 N.ar    1  UNL1       -0.2551
     25 C           7.3309    1.5127   -0.8232 C.ar    1  UNL1        0.0653
     26 S           5.7255    2.0366   -1.0872 S.2     1  UNL1       -0.0749
     27 H           4.1772   -2.6936    0.3519 H       1  UNL1        0.0356
     28 H           4.1844   -1.8688    1.9504 H       1  UNL1        0.0356
     29 H           2.1966   -3.6831    1.8835 H       1  UNL1        0.0575
     30 H           0.2007   -2.2328    1.1442 H       1  UNL1        0.0621
     31 H          -0.1524    2.7038   -1.4038 H       1  UNL1        0.0639
     32 H          -2.8329    2.5464   -1.3096 H       1  UNL1        0.0639
     33 H          -1.2373   -0.8965    0.4642 H       1  UNL1        0.1659
     34 H          -6.3308   -2.1688    1.1454 H       1  UNL1        0.0701
     35 H          -8.2141    0.2673   -0.1072 H       1  UNL1        0.0655
     36 H          -7.1543    2.5295   -1.2826 H       1  UNL1        0.1030
     37 H           6.1682   -1.1228    0.5469 H       1  UNL1        0.0841
     38 H           8.1791    2.1080   -1.1353 H       1  UNL1        0.0907
@<TRIPOS>BOND
     1     1     2    1
     2     2     3    2
     3     3     4    1
     4     4     5   ar
     5     5     6   ar
     6     6     7   ar
     7     7     8   ar
     8     8     9    1
     9     9    10   ar
    10    10    11   ar
    11    11    12   ar
    12    12    13   ar
    13    12    14    1
    14    14    15   ar
    15    15    16   ar
    16    16    17   ar
    17    17    18   ar
    18    18    19   ar
    19    19    20   ar
    20    20    21   ar
    21     6    22    1
    22    22    23   ar
    23    23    24   ar
    24    24    25   ar
    25    25    26   ar
    26     5     1    1
    27    13     9   ar
    28    21    14   ar
    29    26    22   ar
    30     8     4   ar
    31    21    17   ar
    32     1    27    1
    33     1    28    1
    34     2    29    1
    35     3    30    1
    36    10    31    1
    37    11    32    1
    38    13    33    1
    39    16    34    1
    40    18    35    1
    41    19    36    1
    42    23    37    1
    43    25    38    1
