@<TRIPOS>MOLECULE
*****
 42 47 0 0 0
SMALL
GASTEIGER

@<TRIPOS>ATOM
      1 C          -4.0188    2.1160    1.0878 C.3     1  UNL1       -0.0075
      2 C          -3.0479    3.1345    1.6850 C.2     1  UNL1       -0.0790
      3 C          -1.7631    2.7620    1.4894 C.2     1  UNL1       -0.0568
      4 C          -1.7236    1.5291    0.7834 C.ar    1  UNL1       -0.0050
      5 C          -3.0582    1.1187    0.5297 C.ar    1  UNL1       -0.0196
      6 C          -3.1568   -0.0704   -0.1528 C.ar    1  UNL1        0.0422
      7 S          -1.5576   -0.6568   -0.4666 S.2     1  UNL1       -0.0844
      8 C          -0.7627    0.6789    0.3096 C.ar    1  UNL1        0.0435
      9 C           0.6733    0.7563    0.3738 C.ar    1  UNL1        0.0542
     10 C           1.5105    1.7052    0.9268 C.ar    1  UNL1       -0.0353
     11 C           2.8501    1.2910    0.7092 C.ar    1  UNL1       -0.0352
     12 C           2.8223    0.0920    0.0245 C.ar    1  UNL1        0.0557
     13 N           1.4931   -0.2099   -0.1662 N.ar    1  UNL1       -0.3533
     14 C           3.8999   -0.7485   -0.4402 C.ar    1  UNL1        0.0629
     15 S           3.5657   -2.2236   -1.2877 S.2     1  UNL1       -0.0909
     16 C           5.2219   -2.6053   -1.4821 C.ar    1  UNL1        0.0038
     17 C           6.0221   -1.6456   -0.9223 C.ar    1  UNL1        0.0968
     18 N           7.3820   -1.7216   -0.9463 N.ar    1  UNL1       -0.2514
     19 C           7.9342   -0.6456   -0.3236 C.ar    1  UNL1        0.0464
     20 C           7.2153    0.4010    0.2640 C.ar    1  UNL1        0.0464
     21 N           5.8593    0.4981    0.3001 N.ar    1  UNL1       -0.2507
     22 C           5.2676   -0.5692   -0.3181 C.ar    1  UNL1        0.1053
     23 C          -4.3628   -0.7968   -0.5856 C.ar    1  UNL1        0.0778
     24 C          -4.3440   -2.0063   -1.2773 C.ar    1  UNL1       -0.0352
     25 C          -5.5528   -2.6025   -1.6357 C.ar    1  UNL1       -0.0583
     26 C          -6.7469   -1.9814   -1.2973 C.ar    1  UNL1       -0.0436
     27 C          -6.6829   -0.7830   -0.6107 C.ar    1  UNL1        0.0283
     28 N          -5.5274   -0.1827   -0.2508 N.ar    1  UNL1       -0.2544
     29 H          -4.6514    1.6830    1.8677 H       1  UNL1        0.0356
     30 H          -4.6296    2.5774    0.3068 H       1  UNL1        0.0356
     31 H          -3.3667    4.0313    2.1944 H       1  UNL1        0.0575
     32 H          -0.9013    3.3201    1.8213 H       1  UNL1        0.0621
     33 H           1.2113    2.6084    1.4379 H       1  UNL1        0.0639
     34 H           3.7397    1.8216    1.0243 H       1  UNL1        0.0639
     35 H           1.1568   -1.0354   -0.6419 H       1  UNL1        0.1659
     36 H           5.5298   -3.5063   -1.9924 H       1  UNL1        0.0715
     37 H           9.0205   -0.6383   -0.3039 H       1  UNL1        0.0845
     38 H           7.7426    1.2225    0.7410 H       1  UNL1        0.0845
     39 H          -3.4159   -2.4977   -1.5452 H       1  UNL1        0.0639
     40 H          -5.5578   -3.5455   -2.1752 H       1  UNL1        0.0619
     41 H          -7.7026   -2.4194   -1.5615 H       1  UNL1        0.0633
     42 H          -7.5871   -0.2551   -0.3215 H       1  UNL1        0.0830
@<TRIPOS>BOND
     1     1     2    1
     2     2     3    2
     3     3     4    1
     4     4     5   ar
     5     5     6   ar
     6     6     7   ar
     7     7     8   ar
     8     8     9    1
     9     9    10   ar
    10    10    11   ar
    11    11    12   ar
    12    12    13   ar
    13    12    14    1
    14    14    15   ar
    15    15    16   ar
    16    16    17   ar
    17    17    18   ar
    18    18    19   ar
    19    19    20   ar
    20    20    21   ar
    21    21    22   ar
    22     6    23    1
    23    23    24   ar
    24    24    25   ar
    25    25    26   ar
    26    26    27   ar
    27    27    28   ar
    28     5     1    1
    29    13     9   ar
    30    22    14   ar
    31    28    23   ar
    32     8     4   ar
    33    22    17   ar
    34     1    29    1
    35     1    30    1
    36     2    31    1
    37     3    32    1
    38    10    33    1
    39    11    34    1
    40    13    35    1
    41    16    36    1
    42    19    37    1
    43    20    38    1
    44    24    39    1
    45    25    40    1
    46    26    41    1
    47    27    42    1
