@<TRIPOS>MOLECULE
*****
 36 40 0 0 0
SMALL
GASTEIGER

@<TRIPOS>ATOM
      1 C           2.9612   -2.2538   -0.2213 C.3     1  UNL1       -0.0074
      2 C           1.5626   -2.8492   -0.3813 C.2     1  UNL1       -0.0790
      3 C           0.6096   -1.8989   -0.2621 C.2     1  UNL1       -0.0567
      4 C           1.2243   -0.6409   -0.0242 C.ar    1  UNL1       -0.0034
      5 C           2.6330   -0.8129    0.0072 C.ar    1  UNL1       -0.0190
      6 C           3.3108    0.3625    0.2339 C.ar    1  UNL1        0.0490
      7 S           2.1605    1.6565    0.4025 S.2     1  UNL1       -0.0822
      8 C           0.7864    0.6377    0.1723 C.ar    1  UNL1        0.0624
      9 C          -0.5640    1.1302    0.1973 C.ar    1  UNL1        0.1429
     10 C          -1.0389    2.4174    0.3937 C.ar    1  UNL1       -0.0147
     11 C          -2.4538    2.3642    0.3241 C.ar    1  UNL1       -0.0137
     12 C          -2.7880    1.0464    0.0879 C.ar    1  UNL1        0.1538
     13 O          -1.6441    0.3050    0.0121 O.2     1  UNL1       -0.4528
     14 C          -4.0455    0.3237   -0.0877 C.ar    1  UNL1        0.1060
     15 C          -5.2760    0.9735   -0.0315 C.ar    1  UNL1       -0.0327
     16 C          -6.4405    0.2280   -0.2069 C.ar    1  UNL1       -0.0582
     17 C          -6.3461   -1.1392   -0.4325 C.ar    1  UNL1       -0.0436
     18 C          -5.0851   -1.7077   -0.4737 C.ar    1  UNL1        0.0284
     19 N          -3.9408   -1.0108   -0.3074 N.ar    1  UNL1       -0.2519
     20 C           4.7280    0.6246    0.3386 C.ar    1  UNL1        0.1151
     21 N           5.2133    1.8316    0.5626 N.ar    1  UNL1       -0.2468
     22 C           6.5916    1.7950    0.6153 C.ar    1  UNL1        0.0355
     23 C           7.1583    0.5550    0.4308 C.ar    1  UNL1       -0.0042
     24 S           5.9262   -0.6063    0.1826 S.2     1  UNL1       -0.0752
     25 H           3.5451   -2.4001   -1.1343 H       1  UNL1        0.0356
     26 H           3.4692   -2.6985    0.6390 H       1  UNL1        0.0356
     27 H           1.3743   -3.8963   -0.5655 H       1  UNL1        0.0575
     28 H          -0.4591   -2.0570   -0.3344 H       1  UNL1        0.0621
     29 H          -0.4342    3.2968    0.5676 H       1  UNL1        0.0656
     30 H          -3.1390    3.1920    0.4340 H       1  UNL1        0.0656
     31 H          -5.3424    2.0410    0.1450 H       1  UNL1        0.0640
     32 H          -7.4123    0.7120   -0.1674 H       1  UNL1        0.0619
     33 H          -7.2323   -1.7478   -0.5729 H       1  UNL1        0.0633
     34 H          -4.9553   -2.7721   -0.6469 H       1  UNL1        0.0830
     35 H           7.1385    2.7130    0.7932 H       1  UNL1        0.0835
     36 H           8.2043    0.2854    0.4301 H       1  UNL1        0.0709
@<TRIPOS>BOND
     1     1     2    1
     2     2     3    2
     3     3     4    1
     4     4     5   ar
     5     5     6   ar
     6     6     7   ar
     7     7     8   ar
     8     8     9    1
     9     9    10   ar
    10    10    11   ar
    11    11    12   ar
    12    12    13   ar
    13    12    14    1
    14    14    15   ar
    15    15    16   ar
    16    16    17   ar
    17    17    18   ar
    18    18    19   ar
    19     6    20    1
    20    20    21   ar
    21    21    22   ar
    22    22    23   ar
    23    23    24   ar
    24     5     1    1
    25    13     9   ar
    26    19    14   ar
    27    24    20   ar
    28     8     4   ar
    29     1    25    1
    30     1    26    1
    31     2    27    1
    32     3    28    1
    33    10    29    1
    34    11    30    1
    35    15    31    1
    36    16    32    1
    37    17    33    1
    38    18    34    1
    39    22    35    1
    40    23    36    1
