@<TRIPOS>MOLECULE
*****
 44 50 0 0 0
SMALL
GASTEIGER

@<TRIPOS>ATOM
      1 C          -1.9999    0.7526    2.2999 C.3     1  UNL1        0.0000
      2 C          -3.4449    0.7578    2.8027 C.2     1  UNL1        0.0000
      3 C          -4.3152    0.4938    1.8006 C.2     1  UNL1        0.0000
      4 C          -3.5981    0.2840    0.5911 C.ar    1  UNL1        0.0000
      5 C          -2.2146    0.4392    0.8572 C.ar    1  UNL1        0.0000
      6 C          -1.4421    0.2858   -0.2630 C.ar    1  UNL1        0.0000
      7 S          -2.4375   -0.0451   -1.6336 S.2     1  UNL1        0.0000
      8 C          -3.9071    0.0139   -0.7156 C.ar    1  UNL1        0.0000
      9 C          -5.1831   -0.2089   -1.3315 C.ar    1  UNL1        0.0000
     10 C          -5.6310    0.1014   -2.6051 C.ar    1  UNL1        0.0000
     11 C          -6.9763   -0.3299   -2.7124 C.ar    1  UNL1        0.0000
     12 C          -7.3142   -0.9113   -1.5100 C.ar    1  UNL1        0.0000
     13 N          -6.2219   -0.8368   -0.6829 N.ar    1  UNL1        0.0000
     14 C          -0.0074    0.3572   -0.4210 C.ar    1  UNL1        0.0000
     15 C           0.8425   -0.7431   -0.3179 C.ar    1  UNL1        0.0000
     16 N           2.2064   -0.7460   -0.4429 N.ar    1  UNL1        0.0000
     17 C           2.8973    0.4106   -0.7200 C.ar    1  UNL1        0.0000
     18 C           4.3439    0.2896   -0.8476 C.ar    1  UNL1        0.0000
     19 S           5.2424    1.2347   -1.9933 S.2     1  UNL1        0.0000
     20 C           6.7533    0.5165   -1.5691 C.ar    1  UNL1        0.0000
     21 C           6.5795   -0.4311   -0.5980 C.ar    1  UNL1        0.0000
     22 C           7.5244   -1.2846    0.0531 C.2     1  UNL1        0.0000
     23 C           6.9941   -2.1203    0.9738 C.2     1  UNL1        0.0000
     24 SI          5.0904   -1.8955    1.1064 Si      1  UNL1        0.0000
     25 C           5.2186   -0.5532   -0.2143 C.ar    1  UNL1        0.0000
     26 C           2.1627    1.6259   -0.8136 C.ar    1  UNL1        0.0000
     27 N           2.6216    2.8794   -1.0015 N.ar    1  UNL1        0.0000
     28 S           1.3068    3.8842   -1.0524 S.2     1  UNL1        0.0000
     29 N           0.0850    2.8002   -0.7878 N.ar    1  UNL1        0.0000
     30 C           0.6549    1.5849   -0.6646 C.ar    1  UNL1        0.0000
     31 H          -1.5366    1.7348    2.4387 H       1  UNL1        0.0000
     32 H          -1.4147   -0.0235    2.8026 H       1  UNL1        0.0000
     33 H          -3.7178    0.9660    3.8281 H       1  UNL1        0.0000
     34 H          -5.3909    0.4707    1.8990 H       1  UNL1        0.0000
     35 H          -5.0544    0.5993   -3.3763 H       1  UNL1        0.0000
     36 H          -7.6224   -0.2301   -3.5765 H       1  UNL1        0.0000
     37 H          -8.2322   -1.3744   -1.1733 H       1  UNL1        0.0000
     38 H          -6.1755   -1.2098    0.2564 H       1  UNL1        0.0000
     39 H           0.4249   -1.7301   -0.1054 H       1  UNL1        0.0000
     40 H           7.6626    0.8295   -2.0630 H       1  UNL1        0.0000
     41 H           8.5821   -1.2546   -0.1817 H       1  UNL1        0.0000
     42 H           7.5064   -2.8469    1.5833 H       1  UNL1        0.0000
     43 H           4.4102   -3.1446    0.6832 H       1  UNL1        0.0000
     44 H           4.7276   -1.3918    2.4565 H       1  UNL1        0.0000
@<TRIPOS>BOND
     1     1     2    1
     2     2     3    2
     3     3     4    1
     4     4     5   ar
     5     5     6   ar
     6     6     7   ar
     7     7     8   ar
     8     8     9    1
     9     9    10   ar
    10    10    11   ar
    11    11    12   ar
    12    12    13   ar
    13     6    14    1
    14    14    15   ar
    15    15    16   ar
    16    16    17   ar
    17    17    18    1
    18    18    19   ar
    19    19    20   ar
    20    20    21   ar
    21    21    22    1
    22    22    23    2
    23    23    24    1
    24    24    25    1
    25    17    26   ar
    26    26    27   ar
    27    27    28   ar
    28    28    29   ar
    29    29    30   ar
    30     5     1    1
    31    13     9   ar
    32    30    14   ar
    33     8     4   ar
    34    25    18   ar
    35    30    26   ar
    36    25    21   ar
    37     1    31    1
    38     1    32    1
    39     2    33    1
    40     3    34    1
    41    10    35    1
    42    11    36    1
    43    12    37    1
    44    13    38    1
    45    15    39    1
    46    20    40    1
    47    22    41    1
    48    23    42    1
    49    24    43    1
    50    24    44    1
