@<TRIPOS>MOLECULE
*****
 45 51 0 0 0
SMALL
GASTEIGER

@<TRIPOS>ATOM
      1 C          -1.9619   -1.6752    2.3562 C.3     1  UNL1       -0.0075
      2 C          -3.4212   -1.8653    2.7688 C.2     1  UNL1       -0.0790
      3 C          -4.2615   -1.2703    1.8923 C.2     1  UNL1       -0.0568
      4 C          -3.5107   -0.6515    0.8568 C.ar    1  UNL1       -0.0050
      5 C          -2.1321   -0.8734    1.1100 C.ar    1  UNL1       -0.0206
      6 C          -1.3182   -0.2826    0.1805 C.ar    1  UNL1        0.0312
      7 S          -2.2732    0.5377   -0.9990 S.2     1  UNL1       -0.0854
      8 C          -3.7812    0.0892   -0.2618 C.ar    1  UNL1        0.0435
      9 C          -5.0402    0.4914   -0.8265 C.ar    1  UNL1        0.0537
     10 C          -6.3159   -0.0067   -0.6329 C.ar    1  UNL1       -0.0359
     11 C          -7.2108    0.7507   -1.4296 C.ar    1  UNL1       -0.0438
     12 C          -6.4641    1.6931   -2.0965 C.ar    1  UNL1        0.0022
     13 N          -5.1550    1.5253   -1.7302 N.ar    1  UNL1       -0.3602
     14 C           0.1121   -0.3031    0.1189 C.ar    1  UNL1        0.0350
     15 S           1.0597    1.1390    0.1353 S.2     1  UNL1       -0.0860
     16 C           2.5467    0.2823    0.0666 C.ar    1  UNL1        0.0348
     17 C           3.8216    0.9564    0.0483 C.ar    1  UNL1       -0.0020
     18 C           4.3952    1.5822    1.1809 C.ar    1  UNL1       -0.0529
     19 C           5.6642    2.2461    1.1660 C.ar    1  UNL1       -0.0606
     20 C           6.4849    2.3541    0.0221 C.ar    1  UNL1       -0.0535
     21 C           5.9112    1.7410   -1.0924 C.ar    1  UNL1       -0.0103
     22 C           6.5245    1.7247   -2.3205 C.ar    1  UNL1       -0.0166
     23 S           5.5626    0.9055   -3.4854 S.2     1  UNL1       -0.1039
     24 C           4.3217    0.5750   -2.3406 C.ar    1  UNL1       -0.0160
     25 C           4.6337    1.0672   -1.0938 C.ar    1  UNL1       -0.0026
     26 C           2.3308   -1.0678    0.0455 C.ar    1  UNL1        0.0347
     27 S           3.4643   -2.4738   -0.0090 S.2     1  UNL1       -0.0955
     28 C           2.0085   -3.4574   -0.0242 C.ar    1  UNL1       -0.0231
     29 C           0.7925   -2.7666    0.0178 C.ar    1  UNL1       -0.0458
     30 C           0.9646   -1.3573    0.0715 C.ar    1  UNL1        0.0051
     31 H          -1.4888   -2.6414    2.1630 H       1  UNL1        0.0356
     32 H          -1.4094   -1.1241    3.1222 H       1  UNL1        0.0356
     33 H          -3.7253   -2.4018    3.6553 H       1  UNL1        0.0575
     34 H          -5.3383   -1.2525    1.9744 H       1  UNL1        0.0621
     35 H          -6.5860   -0.8374    0.0039 H       1  UNL1        0.0639
     36 H          -8.2818    0.6175   -1.5094 H       1  UNL1        0.0633
     37 H          -6.7479    2.4638   -2.8004 H       1  UNL1        0.0807
     38 H          -4.3759    2.0764   -2.0654 H       1  UNL1        0.1653
     39 H           3.8488    1.5587    2.1247 H       1  UNL1        0.0624
     40 H           6.0155    2.6941    2.0965 H       1  UNL1        0.0618
     41 H           7.4407    2.8611    0.0337 H       1  UNL1        0.0624
     42 H           7.4779    2.1450   -2.6092 H       1  UNL1        0.0699
     43 H           3.4403    0.0366   -2.6604 H       1  UNL1        0.0700
     44 H           2.1415   -4.5300   -0.0686 H       1  UNL1        0.0694
     45 H          -0.1637   -3.2758    0.0022 H       1  UNL1        0.0629
@<TRIPOS>BOND
     1     1     2    1
     2     2     3    2
     3     3     4    1
     4     4     5   ar
     5     5     6   ar
     6     6     7   ar
     7     7     8   ar
     8     8     9    1
     9     9    10   ar
    10    10    11   ar
    11    11    12   ar
    12    12    13   ar
    13     6    14    1
    14    14    15   ar
    15    15    16   ar
    16    16    17    1
    17    17    18   ar
    18    18    19   ar
    19    19    20   ar
    20    20    21   ar
    21    21    22   ar
    22    22    23   ar
    23    23    24   ar
    24    24    25   ar
    25    16    26   ar
    26    26    27   ar
    27    27    28   ar
    28    28    29   ar
    29    29    30   ar
    30     5     1    1
    31    13     9   ar
    32    30    14   ar
    33     8     4   ar
    34    25    17   ar
    35    30    26   ar
    36    25    21   ar
    37     1    31    1
    38     1    32    1
    39     2    33    1
    40     3    34    1
    41    10    35    1
    42    11    36    1
    43    12    37    1
    44    13    38    1
    45    18    39    1
    46    19    40    1
    47    20    41    1
    48    22    42    1
    49    24    43    1
    50    28    44    1
    51    29    45    1
