@<TRIPOS>MOLECULE
*****
 45 50 0 0 0
SMALL
GASTEIGER

@<TRIPOS>ATOM
      1 C           0.6959    1.8551   -0.8547 C.3     1  UNL1        0.0000
      2 C          -0.5858    2.6233   -1.1933 C.2     1  UNL1        0.0000
      3 C          -1.6787    1.8374   -1.0627 C.2     1  UNL1        0.0000
      4 C          -1.2770    0.5408   -0.6482 C.ar    1  UNL1        0.0000
      5 C           0.1307    0.5177   -0.5150 C.ar    1  UNL1        0.0000
      6 C           0.6098   -0.7016   -0.1133 C.ar    1  UNL1        0.0000
      7 S          -0.7065   -1.8034    0.0944 S.2     1  UNL1        0.0000
      8 C          -1.9129   -0.6366   -0.3649 C.ar    1  UNL1        0.0000
      9 C          -3.3022   -0.9709   -0.3721 C.ar    1  UNL1        0.0000
     10 C          -3.7443   -1.8129   -1.3389 C.ar    1  UNL1        0.0000
     11 C          -5.1450   -2.2100   -1.4738 C.ar    1  UNL1        0.0000
     12 C          -6.1014   -1.7514   -0.6459 C.ar    1  UNL1        0.0000
     13 C          -5.7246   -0.8410    0.4152 C.ar    1  UNL1        0.0000
     14 C          -6.5705   -0.3093    1.3168 C.2     1  UNL1        0.0000
     15 SI         -5.6497    0.7987    2.5120 Si      1  UNL1        0.0000
     16 C          -4.0714    0.3993    1.5946 C.2     1  UNL1        0.0000
     17 C          -4.3039   -0.4399    0.5640 C.ar    1  UNL1        0.0000
     18 C           1.9803   -1.0647    0.1182 C.ar    1  UNL1        0.0000
     19 C           2.5258   -2.2691    0.5314 C.ar    1  UNL1        0.0000
     20 C           3.9305   -2.0969    0.6041 C.ar    1  UNL1        0.0000
     21 C           4.1869   -0.7943    0.2323 C.ar    1  UNL1        0.0000
     22 O           3.0084   -0.1715   -0.0608 O.2     1  UNL1        0.0000
     23 C           5.3929    0.0124    0.0953 C.ar    1  UNL1        0.0000
     24 C           5.3530    1.3480   -0.3202 C.ar    1  UNL1        0.0000
     25 C           6.5320    2.0835   -0.4381 C.ar    1  UNL1        0.0000
     26 C           7.7292    1.4589   -0.1349 C.ar    1  UNL1        0.0000
     27 N           7.8196    0.1753    0.2693 N.ar    1  UNL1        0.0000
     28 C           6.6537   -0.5119    0.3734 C.ar    1  UNL1        0.0000
     29 H           1.3608    1.8091   -1.7217 H       1  UNL1        0.0000
     30 H           1.2071    2.3108   -0.0021 H       1  UNL1        0.0000
     31 H          -0.5966    3.6593   -1.4972 H       1  UNL1        0.0000
     32 H          -2.7024    2.1353   -1.2423 H       1  UNL1        0.0000
     33 H          -3.0623   -2.2288   -2.0768 H       1  UNL1        0.0000
     34 H          -5.3932   -2.8956   -2.2782 H       1  UNL1        0.0000
     35 H          -7.1373   -2.0512   -0.7551 H       1  UNL1        0.0000
     36 H          -7.6341   -0.4668    1.3939 H       1  UNL1        0.0000
     37 H          -5.6577    0.2652    3.8955 H       1  UNL1        0.0000
     38 H          -6.0416    2.2222    2.3729 H       1  UNL1        0.0000
     39 H          -3.1242    0.8147    1.9004 H       1  UNL1        0.0000
     40 H           1.9746   -3.1719    0.7562 H       1  UNL1        0.0000
     41 H           4.6588   -2.8410    0.8942 H       1  UNL1        0.0000
     42 H           4.4054    1.8262   -0.5555 H       1  UNL1        0.0000
     43 H           6.5136    3.1189   -0.7592 H       1  UNL1        0.0000
     44 H           8.6739    1.9896   -0.2113 H       1  UNL1        0.0000
     45 H           6.7805   -1.5396    0.7022 H       1  UNL1        0.0000
@<TRIPOS>BOND
     1     1     2    1
     2     2     3    2
     3     3     4    1
     4     4     5   ar
     5     5     6   ar
     6     6     7   ar
     7     7     8   ar
     8     8     9    1
     9     9    10   ar
    10    10    11   ar
    11    11    12   ar
    12    12    13   ar
    13    13    14    2
    14    14    15    1
    15    15    16    1
    16    16    17    2
    17     6    18    1
    18    18    19   ar
    19    19    20   ar
    20    20    21   ar
    21    21    22   ar
    22    21    23    1
    23    23    24   ar
    24    24    25   ar
    25    25    26   ar
    26    26    27   ar
    27    27    28   ar
    28     5     1    1
    29    17     9   ar
    30    22    18   ar
    31    28    23   ar
    32     8     4   ar
    33    17    13   ar
    34     1    29    1
    35     1    30    1
    36     2    31    1
    37     3    32    1
    38    10    33    1
    39    11    34    1
    40    12    35    1
    41    14    36    1
    42    15    37    1
    43    15    38    1
    44    16    39    1
    45    19    40    1
    46    20    41    1
    47    24    42    1
    48    25    43    1
    49    26    44    1
    50    28    45    1
