@<TRIPOS>MOLECULE
*****
 47 53 0 0 0
SMALL
GASTEIGER

@<TRIPOS>ATOM
      1 C           0.5543   -0.1719    2.8891 C.3     1  UNL1        0.0000
      2 C          -0.7648   -0.2492    3.6638 C.2     1  UNL1        0.0000
      3 C          -1.8139   -0.4306    2.8305 C.2     1  UNL1        0.0000
      4 C          -1.3456   -0.4849    1.4919 C.ar    1  UNL1        0.0000
      5 C           0.0615   -0.3335    1.4895 C.ar    1  UNL1        0.0000
      6 C           0.5954   -0.3519    0.2269 C.ar    1  UNL1        0.0000
      7 S          -0.6653   -0.5852   -0.9357 S.2     1  UNL1        0.0000
      8 C          -1.9239   -0.6411    0.2622 C.ar    1  UNL1        0.0000
      9 C          -3.2947   -0.7956   -0.1107 C.ar    1  UNL1        0.0000
     10 C          -3.6868   -2.0019   -0.5904 C.ar    1  UNL1        0.0000
     11 C          -5.0645   -2.2976   -0.9806 C.ar    1  UNL1        0.0000
     12 C          -6.0487   -1.3861   -0.8765 C.ar    1  UNL1        0.0000
     13 C          -5.7260   -0.0694   -0.3677 C.ar    1  UNL1        0.0000
     14 C          -6.6043    0.9388   -0.2150 C.2     1  UNL1        0.0000
     15 SI         -5.7500    2.4617    0.4585 Si      1  UNL1        0.0000
     16 C          -4.1463    1.5018    0.4681 C.2     1  UNL1        0.0000
     17 C          -4.3285    0.2414    0.0222 C.ar    1  UNL1        0.0000
     18 C           1.9712   -0.2190   -0.1650 C.ar    1  UNL1        0.0000
     19 S           3.2094   -1.1577    0.5912 S.2     1  UNL1        0.0000
     20 C           4.4812   -0.4692   -0.3615 C.ar    1  UNL1        0.0000
     21 C           5.8454   -0.8971   -0.2105 C.ar    1  UNL1        0.0000
     22 C           6.7469   -1.2267   -1.2069 C.ar    1  UNL1        0.0000
     23 N           8.0147   -1.5884   -0.7886 N.ar    1  UNL1        0.0000
     24 C           8.0602   -1.5381    0.5238 C.ar    1  UNL1        0.0000
     25 S           6.6195   -1.0561    1.3162 S.2     1  UNL1        0.0000
     26 C           3.9614    0.4652   -1.2278 C.ar    1  UNL1        0.0000
     27 C           4.5973    1.3269   -2.1849 C.2     1  UNL1        0.0000
     28 C           3.7650    2.1485   -2.8599 C.2     1  UNL1        0.0000
     29 SI          1.9498    1.9051   -2.3173 Si      1  UNL1        0.0000
     30 C           2.5457    0.5845   -1.1067 C.ar    1  UNL1        0.0000
     31 H           1.0381    0.7968    3.0414 H       1  UNL1        0.0000
     32 H           1.2202   -0.9861    3.1873 H       1  UNL1        0.0000
     33 H          -0.8293   -0.1722    4.7389 H       1  UNL1        0.0000
     34 H          -2.8509   -0.5208    3.1229 H       1  UNL1        0.0000
     35 H          -2.9793   -2.8209   -0.6981 H       1  UNL1        0.0000
     36 H          -5.2717   -3.2933   -1.3605 H       1  UNL1        0.0000
     37 H          -7.0672   -1.6159   -1.1676 H       1  UNL1        0.0000
     38 H          -7.6591    0.9316   -0.4372 H       1  UNL1        0.0000
     39 H          -5.7388    3.5799   -0.5153 H       1  UNL1        0.0000
     40 H          -6.2112    2.8076    1.8248 H       1  UNL1        0.0000
     41 H          -3.2241    1.9538    0.7972 H       1  UNL1        0.0000
     42 H           6.5291   -1.2252   -2.2684 H       1  UNL1        0.0000
     43 H           8.9550   -1.7851    1.0800 H       1  UNL1        0.0000
     44 H           5.6699    1.3280   -2.3425 H       1  UNL1        0.0000
     45 H           4.0246    2.8758   -3.6123 H       1  UNL1        0.0000
     46 H           1.1444    1.3867   -3.4502 H       1  UNL1        0.0000
     47 H           1.4349    3.1366   -1.6684 H       1  UNL1        0.0000
@<TRIPOS>BOND
     1     1     2    1
     2     2     3    2
     3     3     4    1
     4     4     5   ar
     5     5     6   ar
     6     6     7   ar
     7     7     8   ar
     8     8     9    1
     9     9    10   ar
    10    10    11   ar
    11    11    12   ar
    12    12    13   ar
    13    13    14    2
    14    14    15    1
    15    15    16    1
    16    16    17    2
    17     6    18    1
    18    18    19   ar
    19    19    20   ar
    20    20    21    1
    21    21    22   ar
    22    22    23   ar
    23    23    24   ar
    24    24    25   ar
    25    20    26   ar
    26    26    27    1
    27    27    28    2
    28    28    29    1
    29    29    30    1
    30     5     1    1
    31    17     9   ar
    32    30    18   ar
    33     8     4   ar
    34    17    13   ar
    35    25    21   ar
    36    30    26   ar
    37     1    31    1
    38     1    32    1
    39     2    33    1
    40     3    34    1
    41    10    35    1
    42    11    36    1
    43    12    37    1
    44    14    38    1
    45    15    39    1
    46    15    40    1
    47    16    41    1
    48    22    42    1
    49    24    43    1
    50    27    44    1
    51    28    45    1
    52    29    46    1
    53    29    47    1
