@<TRIPOS>MOLECULE
*****
 50 56 0 0 0
SMALL
GASTEIGER

@<TRIPOS>ATOM
      1 C           0.8964   -2.4422   -0.0613 C.3     1  UNL1       -0.0075
      2 C           2.2539   -3.1321    0.0858 C.2     1  UNL1       -0.0791
      3 C           3.2486   -2.2291    0.2332 C.2     1  UNL1       -0.0568
      4 C           2.7027   -0.9196    0.1993 C.ar    1  UNL1       -0.0065
      5 C           1.2994   -1.0056    0.0302 C.ar    1  UNL1       -0.0214
      6 C           0.6683    0.2184   -0.0012 C.ar    1  UNL1        0.0203
      7 S           1.8797    1.4597    0.1920 S.2     1  UNL1       -0.0877
      8 C           3.1943    0.3481    0.2977 C.ar    1  UNL1        0.0280
      9 C           4.5459    0.8377    0.4631 C.ar    1  UNL1        0.0000
     10 C           5.0007    1.6381    1.5418 C.ar    1  UNL1       -0.0528
     11 C           6.3594    2.0985    1.6894 C.ar    1  UNL1       -0.0605
     12 C           7.4033    1.8112    0.7782 C.ar    1  UNL1       -0.0510
     13 C           6.9284    1.0323   -0.2683 C.ar    1  UNL1        0.0205
     14 C           7.6417    0.5701   -1.3412 C.ar    1  UNL1        0.0994
     15 O           6.8146   -0.1478   -2.1623 O.2     1  UNL1       -0.4698
     16 C           5.5646   -0.1364   -1.6029 C.ar    1  UNL1        0.1000
     17 C           5.5883    0.5683   -0.4264 C.ar    1  UNL1        0.0281
     18 C          -0.7232    0.5002   -0.1583 C.2     1  UNL1       -0.0290
     19 C          -1.8576   -0.4884   -0.3670 C.3     1  UNL1       -0.0008
     20 C          -3.0698    0.4004   -0.4467 C.2     1  UNL1       -0.0353
     21 C          -2.6817    1.6793   -0.3290 C.2     1  UNL1       -0.0574
     22 C          -1.2531    1.7386   -0.1457 C.2     1  UNL1       -0.0569
     23 C          -4.4080   -0.1196   -0.6633 C.ar    1  UNL1       -0.0124
     24 C          -4.7156   -1.2165   -1.5114 C.ar    1  UNL1       -0.0537
     25 C          -6.0414   -1.7380   -1.7241 C.ar    1  UNL1       -0.0606
     26 C          -7.2030   -1.2298   -1.1034 C.ar    1  UNL1       -0.0526
     27 C          -6.8819   -0.1727   -0.2635 C.ar    1  UNL1       -0.0000
     28 C          -7.7720    0.5246    0.5111 C.ar    1  UNL1        0.0094
     29 N          -7.0418    1.4593    1.2117 N.ar    1  UNL1       -0.3659
     30 C          -5.7029    1.3581    0.8930 C.ar    1  UNL1        0.0100
     31 C          -5.5717    0.3613   -0.0455 C.ar    1  UNL1        0.0068
     32 H           0.2268   -2.7293    0.7542 H       1  UNL1        0.0356
     33 H           0.4460   -2.6773   -1.0297 H       1  UNL1        0.0356
     34 H           2.3827   -4.2042    0.0766 H       1  UNL1        0.0575
     35 H           4.2976   -2.4576    0.3624 H       1  UNL1        0.0621
     36 H           4.2876    1.9220    2.3173 H       1  UNL1        0.0624
     37 H           6.5931    2.7083    2.5636 H       1  UNL1        0.0618
     38 H           8.4171    2.1647    0.8990 H       1  UNL1        0.0625
     39 H           8.6682    0.6498   -1.6691 H       1  UNL1        0.1035
     40 H           4.8026   -0.6610   -2.1621 H       1  UNL1        0.1036
     41 H          -1.9332   -1.1793    0.4797 H       1  UNL1        0.0362
     42 H          -1.7062   -1.0508   -1.2944 H       1  UNL1        0.0362
     43 H          -3.3116    2.5542   -0.3819 H       1  UNL1        0.0621
     44 H          -0.7326    2.6767   -0.0216 H       1  UNL1        0.0621
     45 H          -3.9068   -1.6967   -2.0625 H       1  UNL1        0.0624
     46 H          -6.1514   -2.5787   -2.4101 H       1  UNL1        0.0618
     47 H          -8.1927   -1.6308   -1.2657 H       1  UNL1        0.0624
     48 H          -8.8422    0.4454    0.6435 H       1  UNL1        0.0813
     49 H          -7.4282    2.1152    1.8779 H       1  UNL1        0.1648
     50 H          -4.9835    2.0034    1.3767 H       1  UNL1        0.0813
@<TRIPOS>BOND
     1     1     2    1
     2     2     3    2
     3     3     4    1
     4     4     5   ar
     5     5     6   ar
     6     6     7   ar
     7     7     8   ar
     8     8     9    1
     9     9    10   ar
    10    10    11   ar
    11    11    12   ar
    12    12    13   ar
    13    13    14   ar
    14    14    15   ar
    15    15    16   ar
    16    16    17   ar
    17     6    18    1
    18    18    19    1
    19    19    20    1
    20    20    21    2
    21    21    22    1
    22    20    23    1
    23    23    24   ar
    24    24    25   ar
    25    25    26   ar
    26    26    27   ar
    27    27    28   ar
    28    28    29   ar
    29    29    30   ar
    30    30    31   ar
    31     5     1    1
    32    17     9   ar
    33    22    18    2
    34    31    23   ar
    35     8     4   ar
    36    17    13   ar
    37    31    27   ar
    38     1    32    1
    39     1    33    1
    40     2    34    1
    41     3    35    1
    42    10    36    1
    43    11    37    1
    44    12    38    1
    45    14    39    1
    46    16    40    1
    47    19    41    1
    48    19    42    1
    49    21    43    1
    50    22    44    1
    51    24    45    1
    52    25    46    1
    53    26    47    1
    54    28    48    1
    55    29    49    1
    56    30    50    1
