@<TRIPOS>MOLECULE
*****
 47 53 0 0 0
SMALL
GASTEIGER

@<TRIPOS>ATOM
      1 C          -0.2693   -3.0001    0.2330 C.3     1  UNL1       -0.0075
      2 C          -1.5794   -3.7199    0.5813 C.2     1  UNL1       -0.0791
      3 C          -2.5622   -2.8354    0.8693 C.2     1  UNL1       -0.0568
      4 C          -2.0521   -1.5130    0.7589 C.ar    1  UNL1       -0.0064
      5 C          -0.6887   -1.5767    0.3819 C.ar    1  UNL1       -0.0206
      6 C          -0.1290   -0.3382    0.2167 C.ar    1  UNL1        0.0327
      7 S          -1.2870    0.8842    0.5921 S.2     1  UNL1       -0.0868
      8 C          -2.5569   -0.2508    0.8937 C.ar    1  UNL1        0.0280
      9 C          -3.8833    0.1944    1.2675 C.ar    1  UNL1        0.0000
     10 C          -4.5302   -0.1566    2.4811 C.ar    1  UNL1       -0.0528
     11 C          -5.8626    0.2657    2.8428 C.ar    1  UNL1       -0.0605
     12 C          -6.6930    1.0679    2.0254 C.ar    1  UNL1       -0.0510
     13 C          -6.0396    1.3898    0.8430 C.ar    1  UNL1        0.0205
     14 C          -6.5318    2.1420   -0.1923 C.ar    1  UNL1        0.0994
     15 O          -5.5848    2.2350   -1.1809 O.2     1  UNL1       -0.4698
     16 C          -4.4858    1.5280   -0.7682 C.ar    1  UNL1        0.1000
     17 C          -4.7181    0.9869    0.4754 C.ar    1  UNL1        0.0281
     18 C           1.2034   -0.0118   -0.1986 C.ar    1  UNL1        0.0543
     19 S           2.5541   -0.4329    0.7739 S.2     1  UNL1       -0.0818
     20 C           3.6919    0.2379   -0.3334 C.ar    1  UNL1        0.0655
     21 C           5.1227    0.1863   -0.0233 C.ar    1  UNL1        0.0796
     22 C           6.0746   -0.1375   -0.9921 C.ar    1  UNL1       -0.0351
     23 C           7.4232   -0.1527   -0.6365 C.ar    1  UNL1       -0.0583
     24 C           7.7841    0.1735    0.6695 C.ar    1  UNL1       -0.0436
     25 C           6.7747    0.4862    1.5707 C.ar    1  UNL1        0.0283
     26 N           5.4584    0.4873    1.2579 N.ar    1  UNL1       -0.2544
     27 C           3.0434    0.7403   -1.4360 C.ar    1  UNL1        0.1060
     28 N           3.6886    1.3011   -2.5032 N.ar    1  UNL1       -0.2507
     29 C           2.8033    1.7411   -3.4408 C.ar    1  UNL1        0.0464
     30 C           1.4117    1.6368   -3.3488 C.ar    1  UNL1        0.0464
     31 N           0.7408    1.0741   -2.3121 N.ar    1  UNL1       -0.2507
     32 C           1.6036    0.6258   -1.3468 C.ar    1  UNL1        0.1051
     33 H           0.0350   -3.2270   -0.7947 H       1  UNL1        0.0356
     34 H           0.5200   -3.2718    0.9400 H       1  UNL1        0.0356
     35 H          -1.6916   -4.8016    0.5846 H       1  UNL1        0.0575
     36 H          -3.5809   -3.0880    1.1360 H       1  UNL1        0.0621
     37 H          -3.9881   -0.7794    3.1958 H       1  UNL1        0.0624
     38 H          -6.2528   -0.0620    3.8091 H       1  UNL1        0.0618
     39 H          -7.6922    1.3764    2.3052 H       1  UNL1        0.0625
     40 H          -7.4613    2.6576   -0.3888 H       1  UNL1        0.1035
     41 H          -3.6569    1.5146   -1.4663 H       1  UNL1        0.1036
     42 H           5.7882   -0.3577   -2.0120 H       1  UNL1        0.0639
     43 H           8.1882   -0.3958   -1.3842 H       1  UNL1        0.0619
     44 H           8.8257    0.1873    0.9708 H       1  UNL1        0.0633
     45 H           7.0059    0.7646    2.5928 H       1  UNL1        0.0830
     46 H           3.2553    2.1983   -4.3161 H       1  UNL1        0.0845
     47 H           0.7806    2.0262   -4.1388 H       1  UNL1        0.0845
@<TRIPOS>BOND
     1     1     2    1
     2     2     3    2
     3     3     4    1
     4     4     5   ar
     5     5     6   ar
     6     6     7   ar
     7     7     8   ar
     8     8     9    1
     9     9    10   ar
    10    10    11   ar
    11    11    12   ar
    12    12    13   ar
    13    13    14   ar
    14    14    15   ar
    15    15    16   ar
    16    16    17   ar
    17     6    18    1
    18    18    19   ar
    19    19    20   ar
    20    20    21    1
    21    21    22   ar
    22    22    23   ar
    23    23    24   ar
    24    24    25   ar
    25    25    26   ar
    26    20    27   ar
    27    27    28   ar
    28    28    29   ar
    29    29    30   ar
    30    30    31   ar
    31    31    32   ar
    32     5     1    1
    33    17     9   ar
    34    32    18   ar
    35     8     4   ar
    36    17    13   ar
    37    26    21   ar
    38    32    27   ar
    39     1    33    1
    40     1    34    1
    41     2    35    1
    42     3    36    1
    43    10    37    1
    44    11    38    1
    45    12    39    1
    46    14    40    1
    47    16    41    1
    48    22    42    1
    49    23    43    1
    50    24    44    1
    51    25    45    1
    52    29    46    1
    53    30    47    1
