@<TRIPOS>MOLECULE
*****
 46 52 0 0 0
SMALL
GASTEIGER

@<TRIPOS>ATOM
      1 C          -0.7165   -1.9149    2.1679 C.3     1  UNL1       -0.0075
      2 C          -2.1811   -2.1229    2.5650 C.2     1  UNL1       -0.0791
      3 C          -3.0173   -1.4955    1.7075 C.2     1  UNL1       -0.0568
      4 C          -2.2552   -0.8345    0.7099 C.ar    1  UNL1       -0.0064
      5 C          -0.8797   -1.0699    0.9489 C.ar    1  UNL1       -0.0206
      6 C          -0.0698   -0.4526    0.0306 C.ar    1  UNL1        0.0312
      7 S          -1.0365    0.3980   -1.1266 S.2     1  UNL1       -0.0868
      8 C          -2.5274   -0.0532   -0.3760 C.ar    1  UNL1        0.0279
      9 C          -3.7854    0.4070   -0.9285 C.ar    1  UNL1       -0.0025
     10 C          -4.2769    0.0209   -2.1993 C.ar    1  UNL1       -0.0529
     11 C          -5.5313    0.4571   -2.7357 C.ar    1  UNL1       -0.0606
     12 C          -6.4203    1.3207   -2.0601 C.ar    1  UNL1       -0.0535
     13 C          -5.9296    1.7020   -0.8107 C.ar    1  UNL1       -0.0103
     14 C          -6.6197    2.5460    0.0235 C.ar    1  UNL1       -0.0166
     15 S          -5.7479    2.8352    1.4759 S.2     1  UNL1       -0.1039
     16 C          -4.4416    1.8313    0.9811 C.ar    1  UNL1       -0.0160
     17 C          -4.6673    1.2710   -0.2556 C.ar    1  UNL1       -0.0027
     18 C           1.3602   -0.4744   -0.0422 C.ar    1  UNL1        0.0377
     19 S           2.3191    0.9743   -0.1697 S.2     1  UNL1       -0.0818
     20 C           3.8259    0.1192   -0.1611 C.ar    1  UNL1        0.0809
     21 C           5.1224    0.7668   -0.2214 C.ar    1  UNL1        0.0811
     22 C           5.3918    1.8142   -1.0989 C.ar    1  UNL1       -0.0351
     23 C           6.6596    2.3915   -1.0868 C.ar    1  UNL1       -0.0583
     24 C           7.6173    1.9112   -0.2026 C.ar    1  UNL1       -0.0436
     25 C           7.2652    0.8692    0.6379 C.ar    1  UNL1        0.0283
     26 N           6.0442    0.2926    0.6501 N.ar    1  UNL1       -0.2543
     27 C           3.5516   -1.1983   -0.0752 C.ar    1  UNL1        0.1516
     28 O           4.4372   -2.2351   -0.0700 O.2     1  UNL1       -0.4617
     29 C           3.5600   -3.2987    0.0125 C.ar    1  UNL1        0.0932
     30 C           2.2109   -2.9286    0.0466 C.ar    1  UNL1       -0.0150
     31 C           2.2159   -1.5227   -0.0104 C.ar    1  UNL1        0.0361
     32 H          -0.2425   -2.8738    1.9444 H       1  UNL1        0.0356
     33 H          -0.1703   -1.3905    2.9569 H       1  UNL1        0.0356
     34 H          -2.4889   -2.7016    3.4233 H       1  UNL1        0.0575
     35 H          -4.0971   -1.4880    1.7649 H       1  UNL1        0.0621
     36 H          -3.6745   -0.6536   -2.8095 H       1  UNL1        0.0624
     37 H          -5.8141    0.0973   -3.7259 H       1  UNL1        0.0618
     38 H          -7.3633    1.6386   -2.4849 H       1  UNL1        0.0624
     39 H          -7.5814    3.0159   -0.1297 H       1  UNL1        0.0699
     40 H          -3.5871    1.7190    1.6343 H       1  UNL1        0.0700
     41 H           4.6385    2.1765   -1.7904 H       1  UNL1        0.0639
     42 H           6.8962    3.2075   -1.7637 H       1  UNL1        0.0619
     43 H           8.6137    2.3369   -0.1689 H       1  UNL1        0.0633
     44 H           7.9768    0.4562    1.3471 H       1  UNL1        0.0830
     45 H           4.0476   -4.2646    0.0318 H       1  UNL1        0.1030
     46 H           1.3684   -3.6031    0.0925 H       1  UNL1        0.0655
@<TRIPOS>BOND
     1     1     2    1
     2     2     3    2
     3     3     4    1
     4     4     5   ar
     5     5     6   ar
     6     6     7   ar
     7     7     8   ar
     8     8     9    1
     9     9    10   ar
    10    10    11   ar
    11    11    12   ar
    12    12    13   ar
    13    13    14   ar
    14    14    15   ar
    15    15    16   ar
    16    16    17   ar
    17     6    18    1
    18    18    19   ar
    19    19    20   ar
    20    20    21    1
    21    21    22   ar
    22    22    23   ar
    23    23    24   ar
    24    24    25   ar
    25    25    26   ar
    26    20    27   ar
    27    27    28   ar
    28    28    29   ar
    29    29    30   ar
    30    30    31   ar
    31     5     1    1
    32    17     9   ar
    33    31    18   ar
    34     8     4   ar
    35    17    13   ar
    36    26    21   ar
    37    31    27   ar
    38     1    32    1
    39     1    33    1
    40     2    34    1
    41     3    35    1
    42    10    36    1
    43    11    37    1
    44    12    38    1
    45    14    39    1
    46    16    40    1
    47    22    41    1
    48    23    42    1
    49    24    43    1
    50    25    44    1
    51    29    45    1
    52    30    46    1
