@<TRIPOS>MOLECULE
*****
 47 54 0 0 0
SMALL
GASTEIGER

@<TRIPOS>ATOM
      1 SI         -2.7884    3.6501    1.8119 Si      1  UNL1        0.0000
      2 C          -4.0663    2.3823    1.3444 C.2     1  UNL1        0.0000
      3 C          -3.5093    1.2891    0.7775 C.ar    1  UNL1        0.0000
      4 C          -4.2716    0.1300    0.2703 C.ar    1  UNL1        0.0000
      5 C          -5.6753    0.1617    0.1469 C.ar    1  UNL1        0.0000
      6 C          -6.3673   -0.8779   -0.4678 C.ar    1  UNL1        0.0000
      7 C          -5.6602   -1.9410   -1.0031 C.ar    1  UNL1        0.0000
      8 C          -4.2684   -1.9823   -0.8797 C.ar    1  UNL1        0.0000
      9 C          -3.5408   -0.9932   -0.1830 C.ar    1  UNL1        0.0000
     10 C          -2.0600   -1.0430   -0.0354 C.ar    1  UNL1        0.0000
     11 C          -1.2579   -2.2037   -0.0988 C.ar    1  UNL1        0.0000
     12 C          -1.7199   -3.4963    0.0326 C.ar    1  UNL1        0.0000
     13 S          -0.4756   -4.6644   -0.1242 S.2     1  UNL1        0.0000
     14 C           0.7223   -3.4498   -0.2620 C.ar    1  UNL1        0.0000
     15 C           0.1829   -2.1843   -0.1848 C.ar    1  UNL1        0.0000
     16 C           0.9606   -0.9983   -0.1941 C.ar    1  UNL1        0.0000
     17 C           2.3722   -0.9413   -0.3512 C.ar    1  UNL1        0.0000
     18 C           3.0574    0.2735   -0.3149 C.ar    1  UNL1        0.0000
     19 C           2.2448    1.3782   -0.1247 C.ar    1  UNL1        0.0000
     20 N           0.8916    1.3482    0.0355 N.ar    1  UNL1        0.0000
     21 C           0.2015    0.1861    0.0123 C.ar    1  UNL1        0.0000
     22 C          -1.2467    0.1397    0.1732 C.ar    1  UNL1        0.0000
     23 C          -2.0269    1.3331    0.6694 C.ar    1  UNL1        0.0000
     24 C          -1.5038    2.4725    1.1763 C.2     1  UNL1        0.0000
     25 C           4.5104    0.3357   -0.4900 C.ar    1  UNL1        0.0000
     26 N           5.1261   -0.7211   -1.1328 N.ar    1  UNL1        0.0000
     27 C           6.4783   -0.7570   -1.3463 C.ar    1  UNL1        0.0000
     28 C           7.4126    0.1974   -0.9692 C.ar    1  UNL1        0.0000
     29 C           6.8474    1.2937   -0.2945 C.ar    1  UNL1        0.0000
     30 N           7.5364    2.3432    0.1805 N.ar    1  UNL1        0.0000
     31 S           6.4317    3.3488    0.8989 S.2     1  UNL1        0.0000
     32 N           5.0308    2.5036    0.6347 N.ar    1  UNL1        0.0000
     33 C           5.3622    1.3847   -0.0366 C.ar    1  UNL1        0.0000
     34 H          -2.7139    3.8561    3.2789 H       1  UNL1        0.0000
     35 H          -2.9024    4.8881    1.0029 H       1  UNL1        0.0000
     36 H          -5.1069    2.5836    1.5335 H       1  UNL1        0.0000
     37 H          -6.2499    1.0131    0.4988 H       1  UNL1        0.0000
     38 H          -7.4485   -0.8328   -0.5643 H       1  UNL1        0.0000
     39 H          -6.1824   -2.7320   -1.5351 H       1  UNL1        0.0000
     40 H          -3.7599   -2.7983   -1.3860 H       1  UNL1        0.0000
     41 H          -2.7199   -3.8532    0.2307 H       1  UNL1        0.0000
     42 H           1.7550   -3.7527   -0.3592 H       1  UNL1        0.0000
     43 H           2.9390   -1.8563   -0.5059 H       1  UNL1        0.0000
     44 H           2.6436    2.3891   -0.1051 H       1  UNL1        0.0000
     45 H          -0.4670    2.7421    1.2807 H       1  UNL1        0.0000
     46 H           6.8116   -1.6515   -1.8730 H       1  UNL1        0.0000
     47 H           8.4706    0.1067   -1.1681 H       1  UNL1        0.0000
@<TRIPOS>BOND
     1     1     2    1
     2     2     3    2
     3     3     4   ar
     4     4     5   ar
     5     5     6   ar
     6     6     7   ar
     7     7     8   ar
     8     8     9   ar
     9     9    10   ar
    10    10    11   ar
    11    11    12   ar
    12    12    13   ar
    13    13    14   ar
    14    14    15   ar
    15    15    16   ar
    16    16    17   ar
    17    17    18   ar
    18    18    19   ar
    19    19    20   ar
    20    20    21   ar
    21    21    22   ar
    22    22    23   ar
    23    23    24    2
    24    18    25    1
    25    25    26   ar
    26    26    27   ar
    27    27    28   ar
    28    28    29   ar
    29    29    30   ar
    30    30    31   ar
    31    31    32   ar
    32    32    33   ar
    33    24     1    1
    34    33    25   ar
    35    23     3   ar
    36    33    29   ar
    37     9     4   ar
    38    22    10   ar
    39    15    11   ar
    40    21    16   ar
    41     1    34    1
    42     1    35    1
    43     2    36    1
    44     5    37    1
    45     6    38    1
    46     7    39    1
    47     8    40    1
    48    12    41    1
    49    14    42    1
    50    17    43    1
    51    19    44    1
    52    24    45    1
    53    27    46    1
    54    28    47    1
