@<TRIPOS>MOLECULE
*****
 47 52 0 0 0
SMALL
GASTEIGER

@<TRIPOS>ATOM
      1 C          -1.2129   -2.3608    1.6313 C.3     1  UNL1       -0.0075
      2 C          -2.6132   -2.9034    1.9353 C.2     1  UNL1       -0.0791
      3 C          -3.5741   -2.0836    1.4517 C.2     1  UNL1       -0.0568
      4 C          -2.9658   -0.9724    0.8115 C.ar    1  UNL1       -0.0065
      5 C          -1.5600   -1.1073    0.9022 C.ar    1  UNL1       -0.0211
      6 C          -0.8872   -0.0638    0.3228 C.ar    1  UNL1        0.0246
      7 S          -2.0154    1.0755   -0.3240 S.2     1  UNL1       -0.0873
      8 C          -3.3995    0.1561    0.1730 C.ar    1  UNL1        0.0273
      9 C          -4.7522    0.6243   -0.1318 C.ar    1  UNL1       -0.0107
     10 C          -5.1711    1.9158    0.2188 C.ar    1  UNL1       -0.0535
     11 C          -6.4692    2.3458   -0.0685 C.ar    1  UNL1       -0.0612
     12 C          -7.3628    1.4891   -0.7081 C.ar    1  UNL1       -0.0617
     13 C          -6.9608    0.2025   -1.0604 C.ar    1  UNL1       -0.0612
     14 C          -5.6631   -0.2277   -0.7725 C.ar    1  UNL1       -0.0535
     15 C           0.5350    0.1793    0.2071 C.ar    1  UNL1       -0.0018
     16 C           1.2174    1.2616    0.8083 C.ar    1  UNL1       -0.0523
     17 C           2.6370    1.4708    0.7022 C.ar    1  UNL1       -0.0513
     18 C           3.5355    0.6246   -0.0118 C.ar    1  UNL1        0.0095
     19 C           4.9726    0.8523   -0.1236 C.ar    1  UNL1        0.0716
     20 C           5.4913    2.1033   -0.4599 C.ar    1  UNL1       -0.0357
     21 C           6.8724    2.2732   -0.5301 C.ar    1  UNL1       -0.0583
     22 C           7.7035    1.1952   -0.2589 C.ar    1  UNL1       -0.0436
     23 C           7.1151   -0.0126    0.0708 C.ar    1  UNL1        0.0283
     24 N           5.7800   -0.2052    0.1439 N.ar    1  UNL1       -0.2550
     25 C           2.8310   -0.4379   -0.5997 C.ar    1  UNL1        0.0092
     26 C           3.3355   -1.4397   -1.3945 C.ar    1  UNL1        0.0101
     27 N           2.2839   -2.2452   -1.7675 N.ar    1  UNL1       -0.3659
     28 C           1.1065   -1.7670   -1.2367 C.ar    1  UNL1        0.0100
     29 C           1.4147   -0.6487   -0.4983 C.ar    1  UNL1        0.0082
     30 H          -0.6568   -3.0624    1.0042 H       1  UNL1        0.0356
     31 H          -0.6665   -2.1560    2.5561 H       1  UNL1        0.0356
     32 H          -2.7905   -3.8217    2.4747 H       1  UNL1        0.0575
     33 H          -4.6405   -2.2348    1.5430 H       1  UNL1        0.0621
     34 H          -4.4912    2.5957    0.7272 H       1  UNL1        0.0624
     35 H          -6.7809    3.3494    0.2089 H       1  UNL1        0.0618
     36 H          -8.3719    1.8248   -0.9326 H       1  UNL1        0.0618
     37 H          -7.6549   -0.4663   -1.5624 H       1  UNL1        0.0618
     38 H          -5.3622   -1.2317   -1.0636 H       1  UNL1        0.0624
     39 H           0.6442    1.9779    1.3979 H       1  UNL1        0.0624
     40 H           3.0470    2.3360    1.2259 H       1  UNL1        0.0624
     41 H           4.8312    2.9370   -0.6775 H       1  UNL1        0.0639
     42 H           7.2924    3.2391   -0.7954 H       1  UNL1        0.0619
     43 H           8.7822    1.2924   -0.3033 H       1  UNL1        0.0633
     44 H           7.7190   -0.8874    0.2936 H       1  UNL1        0.0830
     45 H           4.3419   -1.6591   -1.7259 H       1  UNL1        0.0813
     46 H           2.3644   -3.0628   -2.3574 H       1  UNL1        0.1648
     47 H           0.1691   -2.2643   -1.4455 H       1  UNL1        0.0813
@<TRIPOS>BOND
     1     1     2    1
     2     2     3    2
     3     3     4    1
     4     4     5   ar
     5     5     6   ar
     6     6     7   ar
     7     7     8   ar
     8     8     9    1
     9     9    10   ar
    10    10    11   ar
    11    11    12   ar
    12    12    13   ar
    13    13    14   ar
    14     6    15    1
    15    15    16   ar
    16    16    17   ar
    17    17    18   ar
    18    18    19    1
    19    19    20   ar
    20    20    21   ar
    21    21    22   ar
    22    22    23   ar
    23    23    24   ar
    24    18    25   ar
    25    25    26   ar
    26    26    27   ar
    27    27    28   ar
    28    28    29   ar
    29     5     1    1
    30    14     9   ar
    31    29    15   ar
    32     8     4   ar
    33    24    19   ar
    34    29    25   ar
    35     1    30    1
    36     1    31    1
    37     2    32    1
    38     3    33    1
    39    10    34    1
    40    11    35    1
    41    12    36    1
    42    13    37    1
    43    14    38    1
    44    16    39    1
    45    17    40    1
    46    20    41    1
    47    21    42    1
    48    22    43    1
    49    23    44    1
    50    26    45    1
    51    27    46    1
    52    28    47    1
