@<TRIPOS>MOLECULE
*****
 45 51 0 0 0
SMALL
GASTEIGER

@<TRIPOS>ATOM
      1 C          -1.4615   -2.7961    0.2701 C.3     1  UNL1       -0.0075
      2 C          -2.9015   -3.3130    0.3145 C.2     1  UNL1       -0.0791
      3 C          -3.7906   -2.3065    0.1548 C.2     1  UNL1       -0.0568
      4 C          -3.0912   -1.0822   -0.0078 C.ar    1  UNL1       -0.0065
      5 C          -1.7005   -1.3386    0.0586 C.ar    1  UNL1       -0.0210
      6 C          -0.9465   -0.2018   -0.0687 C.ar    1  UNL1        0.0275
      7 S          -1.9772    1.1674   -0.2948 S.2     1  UNL1       -0.0872
      8 C          -3.4316    0.2292   -0.1902 C.ar    1  UNL1        0.0273
      9 C          -4.7400    0.8705   -0.3251 C.ar    1  UNL1       -0.0107
     10 C          -5.0968    1.9662    0.4739 C.ar    1  UNL1       -0.0535
     11 C          -6.3531    2.5635    0.3430 C.ar    1  UNL1       -0.0612
     12 C          -7.2666    2.0711   -0.5868 C.ar    1  UNL1       -0.0617
     13 C          -6.9262    0.9815   -1.3857 C.ar    1  UNL1       -0.0612
     14 C          -5.6703    0.3836   -1.2545 C.ar    1  UNL1       -0.0535
     15 C           0.4927   -0.0421   -0.0812 C.ar    1  UNL1        0.0353
     16 C           1.3163   -0.5647   -1.0789 C.ar    1  UNL1        0.0387
     17 N           2.6822   -0.4770   -1.1621 N.ar    1  UNL1       -0.2520
     18 C           3.4124    0.1576   -0.1863 C.ar    1  UNL1        0.1012
     19 C           4.8519    0.2057   -0.3369 C.ar    1  UNL1        0.0307
     20 C           5.4857    0.7063   -1.5014 C.ar    1  UNL1       -0.0503
     21 C           6.8891    0.7655   -1.6728 C.ar    1  UNL1       -0.0590
     22 C           7.7955    0.3179   -0.6995 C.ar    1  UNL1       -0.0335
     23 C           7.2294   -0.2211    0.4801 C.ar    1  UNL1        0.1005
     24 N           7.9215   -0.7162    1.5177 N.ar    1  UNL1       -0.1908
     25 S           6.8000   -1.2335    2.6254 S.2     1  UNL1        0.1165
     26 N           5.3890   -0.8693    1.8356 N.ar    1  UNL1       -0.1901
     27 C           5.7299   -0.2888    0.6702 C.ar    1  UNL1        0.1091
     28 C           2.6997    0.7699    0.8818 C.ar    1  UNL1        0.1264
     29 N           3.2003    1.5035    1.8935 N.ar    1  UNL1       -0.1886
     30 S           1.9239    1.9289    2.8575 S.2     1  UNL1        0.1166
     31 N           0.6667    1.2522    2.0199 N.ar    1  UNL1       -0.1900
     32 C           1.1922    0.6514    0.9360 C.ar    1  UNL1        0.1116
     33 H          -0.9487   -2.9910    1.2160 H       1  UNL1        0.0356
     34 H          -0.9135   -3.2440   -0.5634 H       1  UNL1        0.0356
     35 H          -3.1575   -4.3512    0.4654 H       1  UNL1        0.0575
     36 H          -4.8672   -2.4058    0.1599 H       1  UNL1        0.0621
     37 H          -4.4011    2.3585    1.2127 H       1  UNL1        0.0624
     38 H          -6.6169    3.4119    0.9691 H       1  UNL1        0.0618
     39 H          -8.2433    2.5370   -0.6888 H       1  UNL1        0.0618
     40 H          -7.6364    0.5977   -2.1134 H       1  UNL1        0.0618
     41 H          -5.4178   -0.4601   -1.8927 H       1  UNL1        0.0624
     42 H           0.8705   -1.1085   -1.9125 H       1  UNL1        0.0837
     43 H           4.8566    1.0715   -2.3161 H       1  UNL1        0.0625
     44 H           7.2825    1.1754   -2.6036 H       1  UNL1        0.0618
     45 H           8.8684    0.3675   -0.8411 H       1  UNL1        0.0640
@<TRIPOS>BOND
     1     1     2    1
     2     2     3    2
     3     3     4    1
     4     4     5   ar
     5     5     6   ar
     6     6     7   ar
     7     7     8   ar
     8     8     9    1
     9     9    10   ar
    10    10    11   ar
    11    11    12   ar
    12    12    13   ar
    13    13    14   ar
    14     6    15    1
    15    15    16   ar
    16    16    17   ar
    17    17    18   ar
    18    18    19    1
    19    19    20   ar
    20    20    21   ar
    21    21    22   ar
    22    22    23   ar
    23    23    24   ar
    24    24    25   ar
    25    25    26   ar
    26    26    27   ar
    27    18    28   ar
    28    28    29   ar
    29    29    30   ar
    30    30    31   ar
    31    31    32   ar
    32     5     1    1
    33    14     9   ar
    34    32    15   ar
    35     8     4   ar
    36    27    19   ar
    37    32    28   ar
    38    27    23   ar
    39     1    33    1
    40     1    34    1
    41     2    35    1
    42     3    36    1
    43    10    37    1
    44    11    38    1
    45    12    39    1
    46    13    40    1
    47    14    41    1
    48    16    42    1
    49    20    43    1
    50    21    44    1
    51    22    45    1
