@<TRIPOS>MOLECULE
*****
 49 55 0 0 0
SMALL
GASTEIGER

@<TRIPOS>ATOM
      1 C           1.6160   -2.0882    2.4021 C.3     1  UNL1       -0.0075
      2 C           2.9574   -2.7539    2.7111 C.2     1  UNL1       -0.0790
      3 C           3.9319   -2.2926    1.8960 C.2     1  UNL1       -0.0568
      4 C           3.3918   -1.3224    1.0093 C.ar    1  UNL1       -0.0050
      5 C           2.0090   -1.1761    1.2875 C.ar    1  UNL1       -0.0206
      6 C           1.4016   -0.2390    0.4929 C.ar    1  UNL1        0.0312
      7 S           2.5610    0.4208   -0.6063 S.2     1  UNL1       -0.0853
      8 C           3.8827   -0.5279    0.0060 C.ar    1  UNL1        0.0455
      9 C           5.2383   -0.4147   -0.5565 C.ar    1  UNL1        0.0781
     10 C           5.6708    0.6660   -1.3238 C.ar    1  UNL1       -0.0352
     11 C           6.9777    0.6751   -1.8105 C.ar    1  UNL1       -0.0583
     12 C           7.8202   -0.3889   -1.5209 C.ar    1  UNL1       -0.0436
     13 C           7.3193   -1.4215   -0.7499 C.ar    1  UNL1        0.0283
     14 N           6.0594   -1.4551   -0.2636 N.ar    1  UNL1       -0.2544
     15 C           0.0271    0.1833    0.4849 C.ar    1  UNL1        0.0342
     16 S          -1.2715   -0.9616    0.5940 S.2     1  UNL1       -0.0868
     17 C          -2.4998    0.2484    0.5016 C.ar    1  UNL1        0.0246
     18 C          -1.9244    1.4876    0.4041 C.ar    1  UNL1       -0.0211
     19 C          -2.3914    2.9011    0.3223 C.3     1  UNL1       -0.0075
     20 C          -1.0496    3.6358    0.2777 C.2     1  UNL1       -0.0791
     21 C          -0.0124    2.7691    0.3227 C.2     1  UNL1       -0.0568
     22 C          -0.5080    1.4397    0.3983 C.ar    1  UNL1       -0.0060
     23 C          -3.8954   -0.1311    0.5434 C.ar    1  UNL1       -0.0019
     24 C          -4.5335   -0.7581    1.6426 C.ar    1  UNL1       -0.0529
     25 C          -5.9310   -1.1049    1.6704 C.ar    1  UNL1       -0.0605
     26 C          -6.8328   -0.8635    0.6075 C.ar    1  UNL1       -0.0526
     27 C          -6.1823   -0.2536   -0.4574 C.ar    1  UNL1        0.0000
     28 C          -6.7542    0.1039   -1.6506 C.ar    1  UNL1        0.0094
     29 N          -5.7533    0.6532   -2.4246 N.ar    1  UNL1       -0.3659
     30 C          -4.5580    0.6506   -1.7352 C.ar    1  UNL1        0.0100
     31 C          -4.7986    0.0984   -0.4999 C.ar    1  UNL1        0.0076
     32 H           0.8850   -2.8361    2.0836 H       1  UNL1        0.0356
     33 H           1.2474   -1.5348    3.2703 H       1  UNL1        0.0356
     34 H           3.0913   -3.5000    3.4796 H       1  UNL1        0.0575
     35 H           4.9671   -2.6050    1.9041 H       1  UNL1        0.0621
     36 H           5.0194    1.5035   -1.5466 H       1  UNL1        0.0639
     37 H           7.3313    1.5088   -2.4104 H       1  UNL1        0.0619
     38 H           8.8409   -0.4129   -1.8852 H       1  UNL1        0.0633
     39 H           7.9357   -2.2782   -0.4931 H       1  UNL1        0.0830
     40 H          -2.9645    3.1922    1.2069 H       1  UNL1        0.0356
     41 H          -2.9658    3.0937   -0.5874 H       1  UNL1        0.0356
     42 H          -0.9610    4.7105    0.2230 H       1  UNL1        0.0575
     43 H           1.0336    3.0406    0.3140 H       1  UNL1        0.0621
     44 H          -3.9398   -0.9895    2.5275 H       1  UNL1        0.0624
     45 H          -6.3154   -1.5848    2.5711 H       1  UNL1        0.0618
     46 H          -7.8787   -1.1319    0.6388 H       1  UNL1        0.0624
     47 H          -7.7623    0.0161   -2.0318 H       1  UNL1        0.0813
     48 H          -5.8744    0.9971   -3.3682 H       1  UNL1        0.1648
     49 H          -3.6575    1.0307   -2.1983 H       1  UNL1        0.0813
@<TRIPOS>BOND
     1     1     2    1
     2     2     3    2
     3     3     4    1
     4     4     5   ar
     5     5     6   ar
     6     6     7   ar
     7     7     8   ar
     8     8     9    1
     9     9    10   ar
    10    10    11   ar
    11    11    12   ar
    12    12    13   ar
    13    13    14   ar
    14     6    15    1
    15    15    16   ar
    16    16    17   ar
    17    17    18   ar
    18    18    19    1
    19    19    20    1
    20    20    21    2
    21    21    22    1
    22    17    23    1
    23    23    24   ar
    24    24    25   ar
    25    25    26   ar
    26    26    27   ar
    27    27    28   ar
    28    28    29   ar
    29    29    30   ar
    30    30    31   ar
    31     5     1    1
    32    14     9   ar
    33    22    15   ar
    34    31    23   ar
    35     8     4   ar
    36    22    18   ar
    37    31    27   ar
    38     1    32    1
    39     1    33    1
    40     2    34    1
    41     3    35    1
    42    10    36    1
    43    11    37    1
    44    12    38    1
    45    13    39    1
    46    19    40    1
    47    19    41    1
    48    20    42    1
    49    21    43    1
    50    24    44    1
    51    25    45    1
    52    26    46    1
    53    28    47    1
    54    29    48    1
    55    30    49    1
