@<TRIPOS>MOLECULE
*****
 44 50 0 0 0
SMALL
GASTEIGER

@<TRIPOS>ATOM
      1 C           1.2288    3.0109   -0.1657 C.3     1  UNL1       -0.0075
      2 C           2.6175    3.6430   -0.0410 C.2     1  UNL1       -0.0791
      3 C           3.5789    2.6998    0.0756 C.2     1  UNL1       -0.0568
      4 C           2.9815    1.4126    0.0413 C.ar    1  UNL1       -0.0064
      5 C           1.5803    1.5606   -0.1077 C.ar    1  UNL1       -0.0206
      6 C           0.9218    0.3592   -0.1821 C.ar    1  UNL1        0.0311
      7 S           2.0621   -0.9358   -0.0381 S.2     1  UNL1       -0.0868
      8 C           3.4262    0.1218    0.0991 C.ar    1  UNL1        0.0288
      9 C           4.7713   -0.4209    0.2722 C.ar    1  UNL1        0.0074
     10 C           5.6070    0.0393    1.2943 C.ar    1  UNL1       -0.0506
     11 C           6.8901   -0.4867    1.4359 C.ar    1  UNL1       -0.0430
     12 C           7.3034   -1.4615    0.5434 C.ar    1  UNL1        0.0276
     13 N           6.5334   -1.9326   -0.4596 N.ar    1  UNL1       -0.2626
     14 C           5.2895   -1.4027   -0.5701 C.ar    1  UNL1        0.0358
     15 C          -0.4850    0.1125   -0.3329 C.ar    1  UNL1        0.0350
     16 S          -1.6608    0.9821    0.5845 S.2     1  UNL1       -0.0854
     17 C          -2.9910    0.1419   -0.1112 C.ar    1  UNL1        0.0428
     18 C          -4.3458    0.3953    0.2548 C.ar    1  UNL1        0.0508
     19 S          -5.1096    1.9480    0.0985 S.2     1  UNL1       -0.0934
     20 C          -6.6321    1.3869    0.7242 C.ar    1  UNL1       -0.0145
     21 C          -6.4904    0.0804    1.0245 C.ar    1  UNL1        0.0073
     22 C          -7.2179   -1.0137    1.5514 C.ar    1  UNL1       -0.0361
     23 C          -6.3423   -2.1204    1.5705 C.ar    1  UNL1        0.0028
     24 N          -5.0811   -1.7878    1.0792 N.ar    1  UNL1       -0.3597
     25 C          -5.2512   -0.4663    0.7726 C.ar    1  UNL1        0.0620
     26 C          -2.5502   -0.7657   -1.0368 C.ar    1  UNL1        0.0353
     27 S          -3.4361   -1.9147   -2.1211 S.2     1  UNL1       -0.0955
     28 C          -1.8443   -2.3683   -2.7005 C.ar    1  UNL1       -0.0231
     29 C          -0.7603   -1.7022   -2.1199 C.ar    1  UNL1       -0.0458
     30 C          -1.1549   -0.7585   -1.1310 C.ar    1  UNL1        0.0051
     31 H           0.5954    3.3147    0.6720 H       1  UNL1        0.0356
     32 H           0.7637    3.2793   -1.1182 H       1  UNL1        0.0356
     33 H           2.7882    4.7094   -0.0510 H       1  UNL1        0.0575
     34 H           4.6393    2.8883    0.1684 H       1  UNL1        0.0621
     35 H           5.2614    0.7977    1.9923 H       1  UNL1        0.0625
     36 H           7.5493   -0.1458    2.2263 H       1  UNL1        0.0633
     37 H           8.2937   -1.9026    0.6139 H       1  UNL1        0.0829
     38 H           4.7075   -1.8031   -1.3962 H       1  UNL1        0.0836
     39 H          -7.4825    2.0455    0.8227 H       1  UNL1        0.0700
     40 H          -8.2473   -1.0256    1.8843 H       1  UNL1        0.0639
     41 H          -6.5229   -3.1355    1.9007 H       1  UNL1        0.0807
     42 H          -4.2482   -2.3519    0.9592 H       1  UNL1        0.1654
     43 H          -1.7979   -3.1254   -3.4720 H       1  UNL1        0.0694
     44 H           0.2617   -1.9013   -2.4191 H       1  UNL1        0.0629
@<TRIPOS>BOND
     1     1     2    1
     2     2     3    2
     3     3     4    1
     4     4     5   ar
     5     5     6   ar
     6     6     7   ar
     7     7     8   ar
     8     8     9    1
     9     9    10   ar
    10    10    11   ar
    11    11    12   ar
    12    12    13   ar
    13    13    14   ar
    14     6    15    1
    15    15    16   ar
    16    16    17   ar
    17    17    18    1
    18    18    19   ar
    19    19    20   ar
    20    20    21   ar
    21    21    22   ar
    22    22    23   ar
    23    23    24   ar
    24    24    25   ar
    25    17    26   ar
    26    26    27   ar
    27    27    28   ar
    28    28    29   ar
    29    29    30   ar
    30     5     1    1
    31    14     9   ar
    32    30    15   ar
    33     8     4   ar
    34    25    18   ar
    35    30    26   ar
    36    25    21   ar
    37     1    31    1
    38     1    32    1
    39     2    33    1
    40     3    34    1
    41    10    35    1
    42    11    36    1
    43    12    37    1
    44    14    38    1
    45    20    39    1
    46    22    40    1
    47    23    41    1
    48    24    42    1
    49    28    43    1
    50    29    44    1
