@<TRIPOS>MOLECULE
*****
 40 45 0 0 0
SMALL
GASTEIGER

@<TRIPOS>ATOM
      1 C           2.2121   -2.9902    0.7525 C.3     1  UNL1       -0.0075
      2 C           3.7343   -3.0768    0.8737 C.2     1  UNL1       -0.0790
      3 C           4.3089   -1.8654    0.7031 C.2     1  UNL1       -0.0567
      4 C           3.3014   -0.8933    0.4638 C.ar    1  UNL1       -0.0034
      5 C           2.0347   -1.5320    0.4865 C.ar    1  UNL1       -0.0196
      6 C           0.9947   -0.6662    0.2634 C.ar    1  UNL1        0.0402
      7 S           1.6215    0.9341    0.0289 S.2     1  UNL1       -0.0828
      8 C           3.2709    0.4523    0.2277 C.ar    1  UNL1        0.0624
      9 C           4.3677    1.3791    0.1429 C.ar    1  UNL1        0.1419
     10 C           4.3597    2.7470   -0.0957 C.ar    1  UNL1       -0.0154
     11 C           5.7037    3.1934   -0.0796 C.ar    1  UNL1       -0.0233
     12 C           6.4658    2.0803    0.1673 C.ar    1  UNL1        0.0926
     13 O           5.6768    0.9872    0.3025 O.2     1  UNL1       -0.4624
     14 C          -0.4141   -0.9450    0.2136 C.ar    1  UNL1        0.0539
     15 C          -1.1004   -2.1291    0.3712 C.ar    1  UNL1       -0.0353
     16 C          -2.4822   -1.8491    0.2262 C.ar    1  UNL1       -0.0357
     17 C          -2.6431   -0.4937   -0.0203 C.ar    1  UNL1        0.0491
     18 N          -1.3618    0.0249   -0.0208 N.ar    1  UNL1       -0.3537
     19 C          -3.8440    0.3253   -0.2463 C.ar    1  UNL1        0.0264
     20 C          -3.7922    1.7231   -0.4861 C.ar    1  UNL1       -0.0504
     21 C          -4.9297    2.5378   -0.7070 C.ar    1  UNL1       -0.0590
     22 C          -6.2377    2.0381   -0.7108 C.ar    1  UNL1       -0.0335
     23 C          -6.3734    0.6506   -0.4786 C.ar    1  UNL1        0.1005
     24 N          -7.5408   -0.0104   -0.4446 N.ar    1  UNL1       -0.1908
     25 S          -7.1718   -1.5967   -0.1428 S.2     1  UNL1        0.1165
     26 N          -5.5226   -1.5180   -0.0419 N.ar    1  UNL1       -0.1901
     27 C          -5.1627   -0.2357   -0.2402 C.ar    1  UNL1        0.1089
     28 H           1.7330   -3.2954    1.6870 H       1  UNL1        0.0356
     29 H           1.8563   -3.6027   -0.0806 H       1  UNL1        0.0356
     30 H           4.2661   -3.9955    1.0706 H       1  UNL1        0.0575
     31 H           5.3691   -1.6564    0.7407 H       1  UNL1        0.0621
     32 H           3.4826    3.3564   -0.2629 H       1  UNL1        0.0656
     33 H           6.0684    4.1996   -0.2292 H       1  UNL1        0.0649
     34 H           7.5276    1.9060    0.2717 H       1  UNL1        0.1029
     35 H          -0.6710   -3.1011    0.5699 H       1  UNL1        0.0639
     36 H          -3.2746   -2.5829    0.2982 H       1  UNL1        0.0639
     37 H          -1.1229    0.9930   -0.1721 H       1  UNL1        0.1659
     38 H          -2.8300    2.2324   -0.5081 H       1  UNL1        0.0625
     39 H          -4.7801    3.6038   -0.8823 H       1  UNL1        0.0618
     40 H          -7.1003    2.6711   -0.8810 H       1  UNL1        0.0640
@<TRIPOS>BOND
     1     1     2    1
     2     2     3    2
     3     3     4    1
     4     4     5   ar
     5     5     6   ar
     6     6     7   ar
     7     7     8   ar
     8     8     9    1
     9     9    10   ar
    10    10    11   ar
    11    11    12   ar
    12    12    13   ar
    13     6    14    1
    14    14    15   ar
    15    15    16   ar
    16    16    17   ar
    17    17    18   ar
    18    17    19    1
    19    19    20   ar
    20    20    21   ar
    21    21    22   ar
    22    22    23   ar
    23    23    24   ar
    24    24    25   ar
    25    25    26   ar
    26    26    27   ar
    27     5     1    1
    28    13     9   ar
    29    18    14   ar
    30    27    19   ar
    31     8     4   ar
    32    27    23   ar
    33     1    28    1
    34     1    29    1
    35     2    30    1
    36     3    31    1
    37    10    32    1
    38    11    33    1
    39    12    34    1
    40    15    35    1
    41    16    36    1
    42    18    37    1
    43    20    38    1
    44    21    39    1
    45    22    40    1
