@<TRIPOS>MOLECULE
*****
 40 45 0 0 0
SMALL
GASTEIGER

@<TRIPOS>ATOM
      1 C           1.4363    0.5883    1.9976 C.3     1  UNL1        0.0000
      2 C           2.7698    0.9113    2.6735 C.2     1  UNL1        0.0000
      3 C           3.8117    0.6931    1.8393 C.2     1  UNL1        0.0000
      4 C           3.3299    0.2250    0.5868 C.ar    1  UNL1        0.0000
      5 C           1.9140    0.1606    0.6510 C.ar    1  UNL1        0.0000
      6 C           1.3375   -0.2637   -0.5173 C.ar    1  UNL1        0.0000
      7 S           2.5660   -0.5751   -1.6873 S.2     1  UNL1        0.0000
      8 C           3.8640   -0.1523   -0.6152 C.ar    1  UNL1        0.0000
      9 C           5.2307   -0.2337   -1.0549 C.ar    1  UNL1        0.0000
     10 C           6.4012   -0.2371   -0.3100 C.ar    1  UNL1        0.0000
     11 C           7.4866   -0.3378   -1.2148 C.ar    1  UNL1        0.0000
     12 C           6.9281   -0.3957   -2.4657 C.ar    1  UNL1        0.0000
     13 O           5.5772   -0.3383   -2.3829 O.2     1  UNL1        0.0000
     14 C          -0.0636   -0.4345   -0.7818 C.ar    1  UNL1        0.0000
     15 C          -0.7095   -0.8674   -1.9253 C.ar    1  UNL1        0.0000
     16 C          -2.1001   -0.8565   -1.6519 C.ar    1  UNL1        0.0000
     17 C          -2.2609   -0.4103   -0.3524 C.ar    1  UNL1        0.0000
     18 O          -1.0156   -0.1650    0.1663 O.2     1  UNL1        0.0000
     19 C          -3.4630   -0.2168    0.4128 C.ar    1  UNL1        0.0000
     20 S          -3.4100   -0.2534    2.1483 S.2     1  UNL1        0.0000
     21 C          -5.1053    0.0178    2.3107 C.ar    1  UNL1        0.0000
     22 C          -5.6909    0.1488    1.0819 C.ar    1  UNL1        0.0000
     23 C          -7.0556    0.3987    0.7305 C.2     1  UNL1        0.0000
     24 C          -7.2915    0.4925   -0.5959 C.2     1  UNL1        0.0000
     25 SI         -5.6856    0.2589   -1.6001 Si      1  UNL1        0.0000
     26 C          -4.7511    0.0165    0.0199 C.ar    1  UNL1        0.0000
     27 H           0.9195   -0.2192    2.5236 H       1  UNL1        0.0000
     28 H           0.8036    1.4786    1.9426 H       1  UNL1        0.0000
     29 H           2.8474    1.2750    3.6873 H       1  UNL1        0.0000
     30 H           4.8486    0.8633    2.0876 H       1  UNL1        0.0000
     31 H           6.4706   -0.1865    0.7662 H       1  UNL1        0.0000
     32 H           8.5414   -0.3697   -0.9820 H       1  UNL1        0.0000
     33 H           7.3313   -0.4779   -3.4653 H       1  UNL1        0.0000
     34 H          -0.2348   -1.1660   -2.8499 H       1  UNL1        0.0000
     35 H          -2.8834   -1.1606   -2.3298 H       1  UNL1        0.0000
     36 H          -5.5571    0.0716    3.2911 H       1  UNL1        0.0000
     37 H          -7.8318    0.5042    1.4799 H       1  UNL1        0.0000
     38 H          -8.2339    0.6761   -1.0862 H       1  UNL1        0.0000
     39 H          -5.7454   -0.9637   -2.4399 H       1  UNL1        0.0000
     40 H          -5.3263    1.5007   -2.3277 H       1  UNL1        0.0000
@<TRIPOS>BOND
     1     1     2    1
     2     2     3    2
     3     3     4    1
     4     4     5   ar
     5     5     6   ar
     6     6     7   ar
     7     7     8   ar
     8     8     9    1
     9     9    10   ar
    10    10    11   ar
    11    11    12   ar
    12    12    13   ar
    13     6    14    1
    14    14    15   ar
    15    15    16   ar
    16    16    17   ar
    17    17    18   ar
    18    17    19    1
    19    19    20   ar
    20    20    21   ar
    21    21    22   ar
    22    22    23    1
    23    23    24    2
    24    24    25    1
    25    25    26    1
    26     5     1    1
    27    13     9   ar
    28    18    14   ar
    29    26    19   ar
    30     8     4   ar
    31    26    22   ar
    32     1    27    1
    33     1    28    1
    34     2    29    1
    35     3    30    1
    36    10    31    1
    37    11    32    1
    38    12    33    1
    39    15    34    1
    40    16    35    1
    41    21    36    1
    42    23    37    1
    43    24    38    1
    44    25    39    1
    45    25    40    1
