@<TRIPOS>MOLECULE
*****
 37 42 0 0 0
SMALL
GASTEIGER

@<TRIPOS>ATOM
      1 C           1.6888   -0.8044   -2.2838 C.3     1  UNL1       -0.0075
      2 C           3.0952   -1.0219   -2.8290 C.2     1  UNL1       -0.0790
      3 C           4.0317   -0.7413   -1.8973 C.2     1  UNL1       -0.0568
      4 C           3.4041   -0.3272   -0.6890 C.ar    1  UNL1       -0.0059
      5 C           1.9927   -0.3548   -0.8901 C.ar    1  UNL1       -0.0206
      6 C           1.2726    0.0283    0.2162 C.ar    1  UNL1        0.0305
      7 S           2.3818    0.4158    1.4880 S.2     1  UNL1       -0.0863
      8 C           3.8095    0.0718    0.5593 C.ar    1  UNL1        0.0354
      9 C           5.1403    0.2181    1.1148 C.ar    1  UNL1        0.0459
     10 C           6.3673   -0.0137    0.5116 C.ar    1  UNL1        0.0430
     11 N           7.4974    0.2082    1.2805 N.ar    1  UNL1       -0.2551
     12 C           7.1279    0.6103    2.4730 C.ar    1  UNL1        0.0653
     13 S           5.4454    0.7426    2.7358 S.2     1  UNL1       -0.0749
     14 C          -0.1612    0.1315    0.4108 C.ar    1  UNL1        0.0268
     15 C          -0.8368    0.5234    1.5523 C.ar    1  UNL1       -0.0458
     16 C          -2.2556    0.5115    1.3960 C.ar    1  UNL1       -0.0457
     17 C          -2.6590    0.1107    0.1364 C.ar    1  UNL1        0.0301
     18 S          -1.2843   -0.2432   -0.8297 S.2     1  UNL1       -0.0871
     19 C          -4.0071   -0.0150   -0.3624 C.ar    1  UNL1        0.0687
     20 S          -4.4404   -0.5300   -1.9737 S.2     1  UNL1       -0.0918
     21 C          -6.1487   -0.3915   -1.6950 C.ar    1  UNL1       -0.0128
     22 C          -6.3185    0.0285   -0.4256 C.ar    1  UNL1        0.0278
     23 C          -7.3517    0.3491    0.4669 C.ar    1  UNL1       -0.0156
     24 C          -6.7013    0.7180    1.6501 C.ar    1  UNL1        0.0932
     25 O          -5.3221    0.6575    1.5822 O.2     1  UNL1       -0.4618
     26 C          -5.1650    0.2321    0.2948 C.ar    1  UNL1        0.1500
     27 H           1.1256   -1.7417   -2.2983 H       1  UNL1        0.0356
     28 H           1.1724   -0.0317   -2.8602 H       1  UNL1        0.0356
     29 H           3.2979   -1.3580   -3.8352 H       1  UNL1        0.0575
     30 H           5.0940   -0.8257   -2.0657 H       1  UNL1        0.0621
     31 H           6.5182   -0.3515   -0.5032 H       1  UNL1        0.0841
     32 H           7.8434    0.8462    3.2499 H       1  UNL1        0.0907
     33 H          -0.3494    0.8119    2.4758 H       1  UNL1        0.0629
     34 H          -2.9380    0.7899    2.1898 H       1  UNL1        0.0629
     35 H          -6.8693   -0.6237   -2.4661 H       1  UNL1        0.0701
     36 H          -8.4202    0.3269    0.3083 H       1  UNL1        0.0655
     37 H          -7.0777    1.0429    2.6115 H       1  UNL1        0.1030
@<TRIPOS>BOND
     1     1     2    1
     2     2     3    2
     3     3     4    1
     4     4     5   ar
     5     5     6   ar
     6     6     7   ar
     7     7     8   ar
     8     8     9    1
     9     9    10   ar
    10    10    11   ar
    11    11    12   ar
    12    12    13   ar
    13     6    14    1
    14    14    15   ar
    15    15    16   ar
    16    16    17   ar
    17    17    18   ar
    18    17    19    1
    19    19    20   ar
    20    20    21   ar
    21    21    22   ar
    22    22    23   ar
    23    23    24   ar
    24    24    25   ar
    25    25    26   ar
    26     5     1    1
    27    13     9   ar
    28    18    14   ar
    29    26    19   ar
    30     8     4   ar
    31    26    22   ar
    32     1    27    1
    33     1    28    1
    34     2    29    1
    35     3    30    1
    36    10    31    1
    37    12    32    1
    38    15    33    1
    39    16    34    1
    40    21    35    1
    41    23    36    1
    42    24    37    1
