@<TRIPOS>MOLECULE
*****
 40 45 0 0 0
SMALL
GASTEIGER

@<TRIPOS>ATOM
      1 C          -4.0408   -2.0640    0.3268 C.3     1  UNL1       -0.0074
      2 C          -2.8730   -3.0425    0.4234 C.2     1  UNL1       -0.0790
      3 C          -1.6889   -2.4037    0.2971 C.2     1  UNL1       -0.0568
      4 C          -1.9129   -1.0114    0.1129 C.ar    1  UNL1       -0.0048
      5 C          -3.3131   -0.7769    0.1262 C.ar    1  UNL1       -0.0181
      6 C          -3.6300    0.5446   -0.0452 C.ar    1  UNL1        0.0590
      7 S          -2.1783    1.4622   -0.2186 S.2     1  UNL1       -0.0827
      8 C          -1.1201    0.0961   -0.0651 C.ar    1  UNL1        0.0478
      9 C           0.3409    0.2057   -0.1276 C.ar    1  UNL1        0.1062
     10 N           1.0432   -0.9614    0.0098 N.ar    1  UNL1       -0.2515
     11 C           2.4156   -0.9846   -0.0315 C.ar    1  UNL1        0.0397
     12 C           3.3187    0.0778   -0.2066 C.ar    1  UNL1        0.0466
     13 C           4.7772   -0.1195   -0.2268 C.ar    1  UNL1        0.0745
     14 C           5.7336    0.8813   -0.3943 C.ar    1  UNL1       -0.0356
     15 C           7.0921    0.5556   -0.3937 C.ar    1  UNL1       -0.0583
     16 C           7.4801   -0.7635   -0.2261 C.ar    1  UNL1       -0.0436
     17 C           6.4869   -1.7068   -0.0652 C.ar    1  UNL1        0.0283
     18 N           5.1662   -1.4145   -0.0625 N.ar    1  UNL1       -0.2549
     19 C           2.6304    1.3138   -0.3540 C.ar    1  UNL1        0.1126
     20 N           3.1855    2.5271   -0.5385 N.ar    1  UNL1       -0.1900
     21 S           1.9682    3.6340   -0.6510 S.2     1  UNL1        0.1166
     22 N           0.6584    2.6542   -0.4739 N.ar    1  UNL1       -0.1886
     23 C           1.1012    1.3933   -0.3153 C.ar    1  UNL1        0.1269
     24 C          -4.9204    1.1787   -0.0904 C.ar    1  UNL1        0.1416
     25 C          -6.1829    0.6146    0.0281 C.ar    1  UNL1       -0.0154
     26 C          -7.1325    1.6599   -0.0847 C.ar    1  UNL1       -0.0233
     27 C          -6.4061    2.8087   -0.2661 C.ar    1  UNL1        0.0926
     28 O          -5.0799    2.5330   -0.2714 O.2     1  UNL1       -0.4624
     29 H          -4.6793   -2.3084   -0.5268 H       1  UNL1        0.0356
     30 H          -4.6214   -2.0636    1.2535 H       1  UNL1        0.0356
     31 H          -2.9920   -4.1051    0.5734 H       1  UNL1        0.0575
     32 H          -0.7145   -2.8715    0.3298 H       1  UNL1        0.0621
     33 H           2.8070   -1.9971    0.0947 H       1  UNL1        0.0837
     34 H           5.4659    1.9223   -0.5278 H       1  UNL1        0.0639
     35 H           7.8378    1.3353   -0.5242 H       1  UNL1        0.0619
     36 H           8.5260   -1.0475   -0.2211 H       1  UNL1        0.0633
     37 H           6.7284   -2.7572    0.0705 H       1  UNL1        0.0830
     38 H          -6.4008   -0.4321    0.1790 H       1  UNL1        0.0656
     39 H          -8.2095    1.5838   -0.0392 H       1  UNL1        0.0649
     40 H          -6.6665    3.8492   -0.4006 H       1  UNL1        0.1029
@<TRIPOS>BOND
     1     1     2    1
     2     2     3    2
     3     3     4    1
     4     4     5   ar
     5     5     6   ar
     6     6     7   ar
     7     7     8   ar
     8     8     9    1
     9     9    10   ar
    10    10    11   ar
    11    11    12   ar
    12    12    13    1
    13    13    14   ar
    14    14    15   ar
    15    15    16   ar
    16    16    17   ar
    17    17    18   ar
    18    12    19   ar
    19    19    20   ar
    20    20    21   ar
    21    21    22   ar
    22    22    23   ar
    23     6    24    1
    24    24    25   ar
    25    25    26   ar
    26    26    27   ar
    27    27    28   ar
    28     5     1    1
    29    23     9   ar
    30    28    24   ar
    31     8     4   ar
    32    18    13   ar
    33    23    19   ar
    34     1    29    1
    35     1    30    1
    36     2    31    1
    37     3    32    1
    38    11    33    1
    39    14    34    1
    40    15    35    1
    41    16    36    1
    42    17    37    1
    43    25    38    1
    44    26    39    1
    45    27    40    1
