@<TRIPOS>MOLECULE
*****
 41 46 0 0 0
SMALL
GASTEIGER

@<TRIPOS>ATOM
      1 C           1.6484   -0.9467    2.5025 C.3     1  UNL1        0.0000
      2 C           3.1042   -1.1269    2.9302 C.2     1  UNL1        0.0000
      3 C           3.9501   -0.9400    1.8917 C.2     1  UNL1        0.0000
      4 C           3.2071   -0.6342    0.7180 C.ar    1  UNL1        0.0000
      5 C           1.8294   -0.6262    1.0574 C.ar    1  UNL1        0.0000
      6 C           1.0081   -0.3155    0.0038 C.ar    1  UNL1        0.0000
      7 S           1.9723   -0.0351   -1.4077 S.2     1  UNL1        0.0000
      8 C           3.4779   -0.3422   -0.5928 C.ar    1  UNL1        0.0000
      9 C           4.7235   -0.2618   -1.3148 C.ar    1  UNL1        0.0000
     10 N           4.8650    0.4685   -2.4052 N.ar    1  UNL1        0.0000
     11 C           6.1479    0.3492   -2.8992 C.ar    1  UNL1        0.0000
     12 C           6.9831   -0.4788   -2.1847 C.ar    1  UNL1        0.0000
     13 S           6.1356   -1.1341   -0.8498 S.2     1  UNL1        0.0000
     14 C          -0.4143   -0.2052   -0.0481 C.ar    1  UNL1        0.0000
     15 C          -1.1234   -1.3568   -0.0427 C.ar    1  UNL1        0.0000
     16 C          -2.5821   -1.3941   -0.0950 C.ar    1  UNL1        0.0000
     17 C          -3.3589   -0.2852   -0.1567 C.ar    1  UNL1        0.0000
     18 C          -4.7751   -0.5108   -0.2423 C.ar    1  UNL1        0.0000
     19 N          -5.4892   -1.2948    0.5502 N.ar    1  UNL1        0.0000
     20 C          -6.8130   -1.3099    0.1617 C.ar    1  UNL1        0.0000
     21 C          -7.1141   -0.5581   -0.9494 C.ar    1  UNL1        0.0000
     22 S          -5.6960    0.1947   -1.5378 S.2     1  UNL1        0.0000
     23 C          -2.6647    1.0121   -0.1194 C.ar    1  UNL1        0.0000
     24 C          -3.2423    2.2318   -0.0852 C.2     1  UNL1        0.0000
     25 SI         -1.9666    3.5975   -0.0344 Si      1  UNL1        0.0000
     26 C          -0.6446    2.2878   -0.0299 C.2     1  UNL1        0.0000
     27 C          -1.1753    1.0481   -0.0747 C.ar    1  UNL1        0.0000
     28 H           1.1816   -0.1214    3.0472 H       1  UNL1        0.0000
     29 H           1.0828   -1.8713    2.6475 H       1  UNL1        0.0000
     30 H           3.4019   -1.3659    3.9404 H       1  UNL1        0.0000
     31 H           5.0269   -1.0037    1.9542 H       1  UNL1        0.0000
     32 H           6.4224    0.8934   -3.7946 H       1  UNL1        0.0000
     33 H           8.0168   -0.7243   -2.3795 H       1  UNL1        0.0000
     34 H          -0.6254   -2.3235   -0.0172 H       1  UNL1        0.0000
     35 H          -3.0284   -2.3871   -0.1031 H       1  UNL1        0.0000
     36 H          -7.5238   -1.8978    0.7294 H       1  UNL1        0.0000
     37 H          -8.0703   -0.4253   -1.4339 H       1  UNL1        0.0000
     38 H          -4.2933    2.4700   -0.0766 H       1  UNL1        0.0000
     39 H          -2.0168    4.3624    1.2347 H       1  UNL1        0.0000
     40 H          -1.9683    4.4119   -1.2731 H       1  UNL1        0.0000
     41 H           0.4009    2.5496    0.0177 H       1  UNL1        0.0000
@<TRIPOS>BOND
     1     1     2    1
     2     2     3    2
     3     3     4    1
     4     4     5   ar
     5     5     6   ar
     6     6     7   ar
     7     7     8   ar
     8     8     9    1
     9     9    10   ar
    10    10    11   ar
    11    11    12   ar
    12    12    13   ar
    13     6    14    1
    14    14    15   ar
    15    15    16   ar
    16    16    17   ar
    17    17    18    1
    18    18    19   ar
    19    19    20   ar
    20    20    21   ar
    21    21    22   ar
    22    17    23   ar
    23    23    24    2
    24    24    25    1
    25    25    26    1
    26    26    27    2
    27     5     1    1
    28    13     9   ar
    29    27    14   ar
    30     8     4   ar
    31    22    18   ar
    32    27    23   ar
    33     1    28    1
    34     1    29    1
    35     2    30    1
    36     3    31    1
    37    11    32    1
    38    12    33    1
    39    15    34    1
    40    16    35    1
    41    20    36    1
    42    21    37    1
    43    24    38    1
    44    25    39    1
    45    25    40    1
    46    26    41    1
