@<TRIPOS>MOLECULE
*****
 40 45 0 0 0
SMALL
GASTEIGER

@<TRIPOS>ATOM
      1 C          -4.0941   -1.6999    0.5287 C.3     1  UNL1        0.0000
      2 C          -3.0875   -2.7554    0.9921 C.2     1  UNL1        0.0000
      3 C          -1.8176   -2.3017    0.8913 C.2     1  UNL1        0.0000
      4 C          -1.8268   -0.9753    0.3828 C.ar    1  UNL1        0.0000
      5 C          -3.1709   -0.5911    0.1511 C.ar    1  UNL1        0.0000
      6 C          -3.2890    0.6756   -0.3577 C.ar    1  UNL1        0.0000
      7 S          -1.7191    1.3708   -0.5452 S.2     1  UNL1        0.0000
      8 C          -0.8926   -0.0296    0.0606 C.ar    1  UNL1        0.0000
      9 C           0.5345   -0.0755    0.1667 C.ar    1  UNL1        0.0000
     10 S           1.6322    0.5254   -1.0298 S.2     1  UNL1        0.0000
     11 C           3.0759    0.0655   -0.1384 C.ar    1  UNL1        0.0000
     12 C           4.3678    0.3043   -0.6614 C.2     1  UNL1        0.0000
     13 SI          5.7701   -0.9526   -0.5845 Si      1  UNL1        0.0000
     14 C           6.8419    0.3061   -1.4817 C.2     1  UNL1        0.0000
     15 C           6.1517    1.4312   -1.7427 C.2     1  UNL1        0.0000
     16 C           4.7683    1.4309   -1.2870 C.2     1  UNL1        0.0000
     17 C           2.6378   -0.5072    1.0126 C.ar    1  UNL1        0.0000
     18 C           3.1464   -1.0730    2.1981 C.ar    1  UNL1        0.0000
     19 C           2.0197   -1.4332    2.9455 C.ar    1  UNL1        0.0000
     20 O           0.8182   -1.1401    2.3328 O.2     1  UNL1        0.0000
     21 C           1.2735   -0.5822    1.1741 C.ar    1  UNL1        0.0000
     22 C          -4.5002    1.3670   -0.7036 C.ar    1  UNL1        0.0000
     23 C          -4.6834    2.6422   -1.2190 C.ar    1  UNL1        0.0000
     24 C          -6.0760    2.8415   -1.3812 C.ar    1  UNL1        0.0000
     25 C          -6.6736    1.6816   -0.9582 C.ar    1  UNL1        0.0000
     26 O          -5.7392    0.7891   -0.5494 O.2     1  UNL1        0.0000
     27 H          -4.6687   -2.0623   -0.3283 H       1  UNL1        0.0000
     28 H          -4.7615   -1.4148    1.3466 H       1  UNL1        0.0000
     29 H          -3.3729   -3.7324    1.3523 H       1  UNL1        0.0000
     30 H          -0.9283   -2.8558    1.1569 H       1  UNL1        0.0000
     31 H           6.2480   -1.2027    0.8000 H       1  UNL1        0.0000
     32 H           5.5243   -2.1614   -1.4100 H       1  UNL1        0.0000
     33 H           7.8704    0.1004   -1.7326 H       1  UNL1        0.0000
     34 H           6.5680    2.2909   -2.2537 H       1  UNL1        0.0000
     35 H           4.1431    2.3002   -1.4543 H       1  UNL1        0.0000
     36 H           4.1739   -1.2026    2.5058 H       1  UNL1        0.0000
     37 H           1.9135   -1.8934    3.9194 H       1  UNL1        0.0000
     38 H          -3.8997    3.3500   -1.4519 H       1  UNL1        0.0000
     39 H          -6.5782    3.7208   -1.7589 H       1  UNL1        0.0000
     40 H          -7.6998    1.3491   -0.8880 H       1  UNL1        0.0000
@<TRIPOS>BOND
     1     1     2    1
     2     2     3    2
     3     3     4    1
     4     4     5   ar
     5     5     6   ar
     6     6     7   ar
     7     7     8   ar
     8     8     9    1
     9     9    10   ar
    10    10    11   ar
    11    11    12    1
    12    12    13    1
    13    13    14    1
    14    14    15    2
    15    15    16    1
    16    11    17   ar
    17    17    18   ar
    18    18    19   ar
    19    19    20   ar
    20    20    21   ar
    21     6    22    1
    22    22    23   ar
    23    23    24   ar
    24    24    25   ar
    25    25    26   ar
    26     5     1    1
    27    21     9   ar
    28    26    22   ar
    29     8     4   ar
    30    16    12    2
    31    21    17   ar
    32     1    27    1
    33     1    28    1
    34     2    29    1
    35     3    30    1
    36    13    31    1
    37    13    32    1
    38    14    33    1
    39    15    34    1
    40    16    35    1
    41    18    36    1
    42    19    37    1
    43    23    38    1
    44    24    39    1
    45    25    40    1
