@<TRIPOS>MOLECULE
*****
 46 52 0 0 0
SMALL
GASTEIGER

@<TRIPOS>ATOM
      1 SI         -3.9322    3.9684   -0.6076 Si      1  UNL1        0.0000
      2 C          -4.7783    2.3577   -0.2074 C.2     1  UNL1        0.0000
      3 C          -3.8921    1.3555   -0.0146 C.ar    1  UNL1        0.0000
      4 C          -4.2399   -0.0442    0.3195 C.ar    1  UNL1        0.0000
      5 C          -5.5819   -0.4503    0.4644 C.ar    1  UNL1        0.0000
      6 C          -5.9078   -1.7665    0.7787 C.ar    1  UNL1        0.0000
      7 C          -4.8965   -2.6960    0.9526 C.ar    1  UNL1        0.0000
      8 C          -3.5600   -2.3091    0.8121 C.ar    1  UNL1        0.0000
      9 C          -3.1863   -0.9831    0.4938 C.ar    1  UNL1        0.0000
     10 C          -1.7454   -0.5715    0.3430 C.ar    1  UNL1        0.0000
     11 C          -0.6850   -1.4865    0.5132 C.ar    1  UNL1        0.0000
     12 C           0.6757   -1.1070    0.3709 C.ar    1  UNL1        0.0000
     13 C           1.8249   -1.9409    0.5185 C.ar    1  UNL1        0.0000
     14 C           1.7749   -3.2816    0.8263 C.ar    1  UNL1        0.0000
     15 S           3.3412   -3.9809    0.9059 S.2     1  UNL1        0.0000
     16 C           4.1021   -2.4908    0.5265 C.ar    1  UNL1        0.0000
     17 C           3.1875   -1.4762    0.3574 C.ar    1  UNL1        0.0000
     18 C           3.5204   -0.1524    0.0360 C.ar    1  UNL1        0.0000
     19 C           2.3806    0.6719   -0.1138 C.ar    1  UNL1        0.0000
     20 C           1.0202    0.2325    0.0445 C.ar    1  UNL1        0.0000
     21 C          -0.0344    1.1380   -0.1207 C.ar    1  UNL1        0.0000
     22 C          -1.3921    0.7661    0.0206 C.ar    1  UNL1        0.0000
     23 C          -2.4781    1.7590   -0.1632 C.ar    1  UNL1        0.0000
     24 C          -2.3064    3.0650   -0.4671 C.2     1  UNL1        0.0000
     25 C           4.8768    0.3321   -0.1277 C.ar    1  UNL1        0.0000
     26 C           5.9460    0.3477    0.7509 C.ar    1  UNL1        0.0000
     27 C           7.0473    0.9441    0.0911 C.ar    1  UNL1        0.0000
     28 C           6.6283    1.2838   -1.1741 C.ar    1  UNL1        0.0000
     29 N           5.3140    0.9162   -1.2957 N.ar    1  UNL1        0.0000
     30 H          -4.1097    4.9870    0.4550 H       1  UNL1        0.0000
     31 H          -4.2064    4.4297   -1.9898 H       1  UNL1        0.0000
     32 H          -5.8531    2.3222   -0.1555 H       1  UNL1        0.0000
     33 H          -6.3980    0.2538    0.3347 H       1  UNL1        0.0000
     34 H          -6.9481   -2.0607    0.8866 H       1  UNL1        0.0000
     35 H          -5.1398   -3.7266    1.1984 H       1  UNL1        0.0000
     36 H          -2.8206   -3.0886    0.9620 H       1  UNL1        0.0000
     37 H          -0.8874   -2.5207    0.7623 H       1  UNL1        0.0000
     38 H           0.9165   -3.9113    1.0086 H       1  UNL1        0.0000
     39 H           5.1801   -2.4534    0.4497 H       1  UNL1        0.0000
     40 H           2.5525    1.7242   -0.3492 H       1  UNL1        0.0000
     41 H           0.2136    2.1673   -0.3664 H       1  UNL1        0.0000
     42 H          -1.3892    3.6058   -0.6253 H       1  UNL1        0.0000
     43 H           5.9304   -0.0280    1.7664 H       1  UNL1        0.0000
     44 H           8.0370    1.1086    0.4972 H       1  UNL1        0.0000
     45 H           7.1498    1.7547   -1.9966 H       1  UNL1        0.0000
     46 H           4.7490    1.0350   -2.1262 H       1  UNL1        0.0000
@<TRIPOS>BOND
     1     1     2    1
     2     2     3    2
     3     3     4   ar
     4     4     5   ar
     5     5     6   ar
     6     6     7   ar
     7     7     8   ar
     8     8     9   ar
     9     9    10   ar
    10    10    11   ar
    11    11    12   ar
    12    12    13   ar
    13    13    14   ar
    14    14    15   ar
    15    15    16   ar
    16    16    17   ar
    17    17    18   ar
    18    18    19   ar
    19    19    20   ar
    20    20    21   ar
    21    21    22   ar
    22    22    23   ar
    23    23    24    2
    24    18    25    1
    25    25    26   ar
    26    26    27   ar
    27    27    28   ar
    28    28    29   ar
    29    24     1    1
    30    29    25   ar
    31    23     3   ar
    32     9     4   ar
    33    22    10   ar
    34    20    12   ar
    35    17    13   ar
    36     1    30    1
    37     1    31    1
    38     2    32    1
    39     5    33    1
    40     6    34    1
    41     7    35    1
    42     8    36    1
    43    11    37    1
    44    14    38    1
    45    16    39    1
    46    19    40    1
    47    21    41    1
    48    24    42    1
    49    26    43    1
    50    27    44    1
    51    28    45    1
    52    29    46    1
