@<TRIPOS>MOLECULE
*****
 44 50 0 0 0
SMALL
GASTEIGER

@<TRIPOS>ATOM
      1 C           3.0322    2.8273    0.5021 C.3     1  UNL1       -0.0075
      2 C           1.7628    3.6650    0.3079 C.2     1  UNL1       -0.0790
      3 C           0.6690    2.8791    0.1841 C.2     1  UNL1       -0.0568
      4 C           1.0587    1.5167    0.2711 C.ar    1  UNL1       -0.0059
      5 C           2.4608    1.4496    0.4620 C.ar    1  UNL1       -0.0206
      6 C           2.9273    0.1605    0.5332 C.ar    1  UNL1        0.0316
      7 S           1.6062   -0.9501    0.3733 S.2     1  UNL1       -0.0862
      8 C           0.4337    0.3056    0.1836 C.ar    1  UNL1        0.0360
      9 C          -0.9535    0.0174   -0.0362 C.ar    1  UNL1        0.0546
     10 S          -2.1316    0.4150    1.1532 S.2     1  UNL1       -0.0818
     11 C          -3.4326   -0.1697    0.1906 C.ar    1  UNL1        0.0655
     12 C          -4.7982   -0.0649    0.6830 C.ar    1  UNL1        0.0796
     13 C          -5.7339    0.7524    0.0507 C.ar    1  UNL1       -0.0351
     14 C          -7.0308    0.7873    0.5551 C.ar    1  UNL1       -0.0583
     15 C          -7.3560   -0.0081    1.6535 C.ar    1  UNL1       -0.0436
     16 C          -6.3606   -0.7961    2.2176 C.ar    1  UNL1        0.0283
     17 N          -5.0866   -0.8332    1.7666 N.ar    1  UNL1       -0.2544
     18 C          -2.9762   -0.6663   -1.0100 C.ar    1  UNL1        0.1060
     19 N          -3.7938   -1.1920   -1.9731 N.ar    1  UNL1       -0.2507
     20 C          -3.0755   -1.6125   -3.0487 C.ar    1  UNL1        0.0464
     21 C          -1.6874   -1.5038   -3.1800 C.ar    1  UNL1        0.0464
     22 N          -0.8518   -0.9668   -2.2501 N.ar    1  UNL1       -0.2507
     23 C          -1.5402   -0.5624   -1.1418 C.ar    1  UNL1        0.1051
     24 C           4.2730   -0.2827    0.7413 C.ar    1  UNL1        0.0405
     25 S           5.2376    0.2797    2.0597 S.2     1  UNL1       -0.0944
     26 C           6.6035   -0.6596    1.5969 C.ar    1  UNL1       -0.0155
     27 C           6.2721   -1.3517    0.4842 C.ar    1  UNL1       -0.0032
     28 C           6.9887   -2.2559   -0.3334 C.ar    1  UNL1       -0.0465
     29 C           6.2211   -2.7236   -1.4078 C.ar    1  UNL1       -0.0231
     30 S           4.5855   -2.0912   -1.5328 S.2     1  UNL1       -0.0955
     31 C           4.9860   -1.1681   -0.0274 C.ar    1  UNL1        0.0346
     32 H           3.4986    3.0545    1.4657 H       1  UNL1        0.0356
     33 H           3.7360    3.0033   -0.3181 H       1  UNL1        0.0356
     34 H           1.7628    4.7438    0.2687 H       1  UNL1        0.0575
     35 H          -0.3441    3.2224    0.0347 H       1  UNL1        0.0621
     36 H          -5.4621    1.3512   -0.8156 H       1  UNL1        0.0639
     37 H          -7.7812    1.4240    0.0889 H       1  UNL1        0.0619
     38 H          -8.3606   -0.0141    2.0627 H       1  UNL1        0.0633
     39 H          -6.5672   -1.4374    3.0736 H       1  UNL1        0.0830
     40 H          -3.6664   -2.0576   -3.8472 H       1  UNL1        0.0845
     41 H          -1.1992   -1.8523   -4.0855 H       1  UNL1        0.0845
     42 H           7.5278   -0.6352    2.1578 H       1  UNL1        0.0700
     43 H           8.0138   -2.5690   -0.1729 H       1  UNL1        0.0629
     44 H           6.5324   -3.4304   -2.1662 H       1  UNL1        0.0694
@<TRIPOS>BOND
     1     1     2    1
     2     2     3    2
     3     3     4    1
     4     4     5   ar
     5     5     6   ar
     6     6     7   ar
     7     7     8   ar
     8     8     9    1
     9     9    10   ar
    10    10    11   ar
    11    11    12    1
    12    12    13   ar
    13    13    14   ar
    14    14    15   ar
    15    15    16   ar
    16    16    17   ar
    17    11    18   ar
    18    18    19   ar
    19    19    20   ar
    20    20    21   ar
    21    21    22   ar
    22    22    23   ar
    23     6    24    1
    24    24    25   ar
    25    25    26   ar
    26    26    27   ar
    27    27    28   ar
    28    28    29   ar
    29    29    30   ar
    30    30    31   ar
    31     5     1    1
    32    23     9   ar
    33    31    24   ar
    34     8     4   ar
    35    17    12   ar
    36    23    18   ar
    37    31    27   ar
    38     1    32    1
    39     1    33    1
    40     2    34    1
    41     3    35    1
    42    13    36    1
    43    14    37    1
    44    15    38    1
    45    16    39    1
    46    20    40    1
    47    21    41    1
    48    26    42    1
    49    28    43    1
    50    29    44    1
