@<TRIPOS>MOLECULE
*****
 40 46 0 0 0
SMALL
GASTEIGER

@<TRIPOS>ATOM
      1 C          -4.3348    1.6050   -0.5189 C.3     1  UNL1       -0.0074
      2 C          -3.3746    2.7985   -0.5377 C.2     1  UNL1       -0.0790
      3 C          -2.0920    2.4023   -0.3743 C.2     1  UNL1       -0.0568
      4 C          -2.0493    0.9902   -0.2321 C.ar    1  UNL1       -0.0059
      5 C          -3.3686    0.4847   -0.3215 C.ar    1  UNL1       -0.0191
      6 C          -3.4385   -0.8829   -0.2155 C.ar    1  UNL1        0.0489
      7 S          -1.8395   -1.5149   -0.0044 S.2     1  UNL1       -0.0848
      8 C          -1.0838    0.0408   -0.0538 C.ar    1  UNL1        0.0346
      9 C           0.3310    0.2070    0.1022 C.ar    1  UNL1        0.0379
     10 S           1.4988   -0.7346   -0.7875 S.2     1  UNL1       -0.0832
     11 C           2.8616    0.0459   -0.0626 C.ar    1  UNL1        0.0663
     12 C           4.2425   -0.2446   -0.3773 C.ar    1  UNL1        0.0385
     13 C           5.2128    0.7378   -0.6165 C.ar    1  UNL1        0.0381
     14 N           6.5404    0.5565   -0.9256 N.ar    1  UNL1       -0.2604
     15 C           7.0656   -0.6986   -1.0201 C.ar    1  UNL1        0.0557
     16 C           6.2127   -1.7954   -0.7875 C.ar    1  UNL1        0.1185
     17 N           6.5559   -3.0931   -0.8282 N.ar    1  UNL1       -0.1892
     18 S           5.1831   -3.9510   -0.4657 S.2     1  UNL1        0.1165
     19 N           4.0989   -2.7187   -0.2421 N.ar    1  UNL1       -0.1900
     20 C           4.7578   -1.5638   -0.4532 C.ar    1  UNL1        0.1111
     21 C           2.3917    0.9821    0.7859 C.ar    1  UNL1        0.1502
     22 O           3.1255    1.8351    1.5549 O.2     1  UNL1       -0.4617
     23 C           2.1044    2.5063    2.2012 C.ar    1  UNL1        0.0932
     24 C           0.8200    2.0849    1.8363 C.ar    1  UNL1       -0.0150
     25 C           1.0235    1.0703    0.8822 C.ar    1  UNL1        0.0361
     26 C          -4.6321   -1.6931   -0.2689 C.ar    1  UNL1        0.1151
     27 N          -5.8248   -1.1456   -0.4202 N.ar    1  UNL1       -0.2468
     28 C          -6.7987   -2.1239   -0.4418 C.ar    1  UNL1        0.0355
     29 C          -6.3451   -3.4161   -0.3059 C.ar    1  UNL1       -0.0042
     30 S          -4.6411   -3.4123   -0.1453 S.2     1  UNL1       -0.0752
     31 H          -4.8676    1.5225   -1.4702 H       1  UNL1        0.0356
     32 H          -5.0398    1.6886    0.3127 H       1  UNL1        0.0356
     33 H          -3.7002    3.8188   -0.6764 H       1  UNL1        0.0575
     34 H          -1.2293    3.0534   -0.3668 H       1  UNL1        0.0621
     35 H           4.9331    1.7917   -0.5714 H       1  UNL1        0.0836
     36 H           8.1154   -0.7915   -1.2642 H       1  UNL1        0.0852
     37 H           2.4481    3.2582    2.9001 H       1  UNL1        0.1030
     38 H          -0.1112    2.4696    2.2276 H       1  UNL1        0.0655
     39 H          -7.8363   -1.8361   -0.5605 H       1  UNL1        0.0835
     40 H          -6.9151   -4.3336   -0.2937 H       1  UNL1        0.0709
@<TRIPOS>BOND
     1     1     2    1
     2     2     3    2
     3     3     4    1
     4     4     5   ar
     5     5     6   ar
     6     6     7   ar
     7     7     8   ar
     8     8     9    1
     9     9    10   ar
    10    10    11   ar
    11    11    12    1
    12    12    13   ar
    13    13    14   ar
    14    14    15   ar
    15    15    16   ar
    16    16    17   ar
    17    17    18   ar
    18    18    19   ar
    19    19    20   ar
    20    11    21   ar
    21    21    22   ar
    22    22    23   ar
    23    23    24   ar
    24    24    25   ar
    25     6    26    1
    26    26    27   ar
    27    27    28   ar
    28    28    29   ar
    29    29    30   ar
    30     5     1    1
    31    25     9   ar
    32    30    26   ar
    33     8     4   ar
    34    20    12   ar
    35    25    21   ar
    36    20    16   ar
    37     1    31    1
    38     1    32    1
    39     2    33    1
    40     3    34    1
    41    13    35    1
    42    15    36    1
    43    23    37    1
    44    24    38    1
    45    28    39    1
    46    29    40    1
