@<TRIPOS>MOLECULE
*****
 43 49 0 0 0
SMALL
GASTEIGER

@<TRIPOS>ATOM
      1 C          -3.5636    2.5911   -0.7661 C.3     1  UNL1        0.0000
      2 C          -2.3674    3.5429   -0.7161 C.2     1  UNL1        0.0000
      3 C          -1.2237    2.8792   -0.4359 C.2     1  UNL1        0.0000
      4 C          -1.5071    1.4970   -0.2744 C.ar    1  UNL1        0.0000
      5 C          -2.8966    1.2890   -0.4611 C.ar    1  UNL1        0.0000
      6 C          -3.2873   -0.0206   -0.2967 C.ar    1  UNL1        0.0000
      7 S          -1.8746   -0.9728    0.0711 S.2     1  UNL1        0.0000
      8 C          -0.7925    0.3729    0.0234 C.ar    1  UNL1        0.0000
      9 C           0.6136    0.2150    0.2584 C.ar    1  UNL1        0.0000
     10 S           1.7951    0.8377   -0.8339 S.2     1  UNL1        0.0000
     11 C           3.1221    0.2463    0.0900 C.ar    1  UNL1        0.0000
     12 C           4.4802    0.4276   -0.2979 C.ar    1  UNL1        0.0000
     13 S           5.2162    1.9693   -0.6039 S.2     1  UNL1        0.0000
     14 C           6.7725    1.2777   -0.9722 C.ar    1  UNL1        0.0000
     15 C           6.6600   -0.0625   -0.8603 C.ar    1  UNL1        0.0000
     16 C           7.4301   -1.2271   -1.0014 C.ar    1  UNL1        0.0000
     17 C           6.5512   -2.2779   -0.7077 C.ar    1  UNL1        0.0000
     18 O           5.2678   -1.8733   -0.3893 O.2     1  UNL1        0.0000
     19 C           5.4171   -0.5228   -0.4967 C.ar    1  UNL1        0.0000
     20 C           2.6733   -0.3926    1.2154 C.ar    1  UNL1        0.0000
     21 S           3.5469   -1.1801    2.5934 S.2     1  UNL1        0.0000
     22 C           1.9457   -1.5067    3.2326 C.ar    1  UNL1        0.0000
     23 C           0.8677   -1.0501    2.4679 C.ar    1  UNL1        0.0000
     24 C           1.2764   -0.3952    1.2737 C.ar    1  UNL1        0.0000
     25 C          -4.5720   -0.6070   -0.4069 C.2     1  UNL1        0.0000
     26 SI         -5.2709   -1.9059    0.7711 Si      1  UNL1        0.0000
     27 C          -6.8598   -1.8512   -0.2399 C.2     1  UNL1        0.0000
     28 C          -6.7577   -0.9747   -1.2551 C.2     1  UNL1        0.0000
     29 C          -5.4836   -0.2758   -1.3455 C.2     1  UNL1        0.0000
     30 H          -4.0161    2.5960   -1.7614 H       1  UNL1        0.0000
     31 H          -4.3036    2.8562   -0.0059 H       1  UNL1        0.0000
     32 H          -2.4443    4.6066   -0.8851 H       1  UNL1        0.0000
     33 H          -0.2436    3.3259   -0.3423 H       1  UNL1        0.0000
     34 H           7.6162    1.8977   -1.2393 H       1  UNL1        0.0000
     35 H           8.4703   -1.3265   -1.2761 H       1  UNL1        0.0000
     36 H           6.6882   -3.3514   -0.6844 H       1  UNL1        0.0000
     37 H           1.8910   -2.0328    4.1758 H       1  UNL1        0.0000
     38 H          -0.1601   -1.1896    2.7801 H       1  UNL1        0.0000
     39 H          -4.6116   -3.2322    0.6662 H       1  UNL1        0.0000
     40 H          -5.4878   -1.3947    2.1486 H       1  UNL1        0.0000
     41 H          -7.7086   -2.4691    0.0064 H       1  UNL1        0.0000
     42 H          -7.5503   -0.7821   -1.9682 H       1  UNL1        0.0000
     43 H          -5.3188    0.4467   -2.1353 H       1  UNL1        0.0000
@<TRIPOS>BOND
     1     1     2    1
     2     2     3    2
     3     3     4    1
     4     4     5   ar
     5     5     6   ar
     6     6     7   ar
     7     7     8   ar
     8     8     9    1
     9     9    10   ar
    10    10    11   ar
    11    11    12    1
    12    12    13   ar
    13    13    14   ar
    14    14    15   ar
    15    15    16   ar
    16    16    17   ar
    17    17    18   ar
    18    18    19   ar
    19    11    20   ar
    20    20    21   ar
    21    21    22   ar
    22    22    23   ar
    23    23    24   ar
    24     6    25    1
    25    25    26    1
    26    26    27    1
    27    27    28    2
    28    28    29    1
    29     5     1    1
    30    24     9   ar
    31    29    25    2
    32     8     4   ar
    33    19    12   ar
    34    24    20   ar
    35    19    15   ar
    36     1    30    1
    37     1    31    1
    38     2    32    1
    39     3    33    1
    40    14    34    1
    41    16    35    1
    42    17    36    1
    43    22    37    1
    44    23    38    1
    45    26    39    1
    46    26    40    1
    47    27    41    1
    48    28    42    1
    49    29    43    1
