@<TRIPOS>MOLECULE
*****
 46 53 0 0 0
SMALL
GASTEIGER

@<TRIPOS>ATOM
      1 C          -3.1294   -2.5431   -0.2394 C.3     1  UNL1       -0.0075
      2 C          -1.8943   -3.2945    0.2656 C.2     1  UNL1       -0.0790
      3 C          -0.8046   -2.4939    0.2884 C.2     1  UNL1       -0.0568
      4 C          -1.1649   -1.1971   -0.1636 C.ar    1  UNL1       -0.0059
      5 C          -2.5438   -1.1934   -0.4864 C.ar    1  UNL1       -0.0206
      6 C          -2.9707    0.0171   -0.9665 C.ar    1  UNL1        0.0325
      7 S          -1.6537    1.1343   -1.0085 S.2     1  UNL1       -0.0862
      8 C          -0.5203   -0.0108   -0.3765 C.ar    1  UNL1        0.0359
      9 C           0.8479    0.3296   -0.1423 C.ar    1  UNL1        0.0509
     10 S           1.9092    0.9775   -1.3494 S.2     1  UNL1       -0.0844
     11 C           3.2838    1.0348   -0.2820 C.ar    1  UNL1        0.0368
     12 C           4.5671    1.4962   -0.7078 C.ar    1  UNL1        0.0408
     13 S           4.8227    3.0368   -1.4465 S.2     1  UNL1       -0.0944
     14 C           6.5214    2.7975   -1.5950 C.ar    1  UNL1       -0.0155
     15 C           6.8136    1.5774   -1.0937 C.ar    1  UNL1       -0.0032
     16 C           8.0214    0.8517   -0.9623 C.ar    1  UNL1       -0.0465
     17 C           7.8269   -0.4059   -0.3805 C.ar    1  UNL1       -0.0231
     18 S           6.1732   -0.8185    0.0524 S.2     1  UNL1       -0.0955
     19 C           5.7539    0.8201   -0.5919 C.ar    1  UNL1        0.0346
     20 C           2.8724    0.5804    0.9238 C.ar    1  UNL1        0.0156
     21 C           3.3395    0.3519    2.2455 C.ar    1  UNL1       -0.0355
     22 C           2.2516   -0.1449    2.9936 C.ar    1  UNL1        0.0028
     23 N           1.0991   -0.2425    2.2186 N.ar    1  UNL1       -0.3597
     24 C           1.5497    0.2003    1.0060 C.ar    1  UNL1        0.0626
     25 C          -4.2844    0.3843   -1.3869 C.ar    1  UNL1        0.0500
     26 S          -4.6860    0.8777   -3.0007 S.2     1  UNL1       -0.0934
     27 C          -6.3796    1.0568   -2.6425 C.ar    1  UNL1       -0.0145
     28 C          -6.5541    0.7486   -1.3416 C.ar    1  UNL1        0.0073
     29 C          -7.5637    0.6637   -0.3524 C.ar    1  UNL1       -0.0361
     30 C          -6.9349    0.2638    0.8467 C.ar    1  UNL1        0.0028
     31 N          -5.5630    0.0892    0.6747 N.ar    1  UNL1       -0.3597
     32 C          -5.4186    0.3867   -0.6513 C.ar    1  UNL1        0.0619
     33 H          -3.9065   -2.5192    0.5291 H       1  UNL1        0.0356
     34 H          -3.5114   -2.9958   -1.1585 H       1  UNL1        0.0356
     35 H          -1.9057   -4.3384    0.5433 H       1  UNL1        0.0575
     36 H           0.1931   -2.7935    0.5802 H       1  UNL1        0.0621
     37 H           7.1641    3.5481   -2.0325 H       1  UNL1        0.0700
     38 H           8.9978    1.2040   -1.2716 H       1  UNL1        0.0629
     39 H           8.5867   -1.1477   -0.1748 H       1  UNL1        0.0694
     40 H           4.3358    0.5251    2.6312 H       1  UNL1        0.0639
     41 H           2.2084   -0.4333    4.0361 H       1  UNL1        0.0807
     42 H           0.1626   -0.5456    2.4584 H       1  UNL1        0.1654
     43 H          -7.0876    1.3705   -3.3957 H       1  UNL1        0.0700
     44 H          -8.6202    0.8680   -0.4662 H       1  UNL1        0.0639
     45 H          -7.3650    0.0959    1.8259 H       1  UNL1        0.0807
     46 H          -4.8396   -0.1701    1.3345 H       1  UNL1        0.1654
@<TRIPOS>BOND
     1     1     2    1
     2     2     3    2
     3     3     4    1
     4     4     5   ar
     5     5     6   ar
     6     6     7   ar
     7     7     8   ar
     8     8     9    1
     9     9    10   ar
    10    10    11   ar
    11    11    12    1
    12    12    13   ar
    13    13    14   ar
    14    14    15   ar
    15    15    16   ar
    16    16    17   ar
    17    17    18   ar
    18    18    19   ar
    19    11    20   ar
    20    20    21   ar
    21    21    22   ar
    22    22    23   ar
    23    23    24   ar
    24     6    25    1
    25    25    26   ar
    26    26    27   ar
    27    27    28   ar
    28    28    29   ar
    29    29    30   ar
    30    30    31   ar
    31    31    32   ar
    32     5     1    1
    33    24     9   ar
    34    32    25   ar
    35     8     4   ar
    36    19    12   ar
    37    24    20   ar
    38    32    28   ar
    39    19    15   ar
    40     1    33    1
    41     1    34    1
    42     2    35    1
    43     3    36    1
    44    14    37    1
    45    16    38    1
    46    17    39    1
    47    21    40    1
    48    22    41    1
    49    23    42    1
    50    27    43    1
    51    29    44    1
    52    30    45    1
    53    31    46    1
