@<TRIPOS>MOLECULE
*****
 42 48 0 0 0
SMALL
GASTEIGER

@<TRIPOS>ATOM
      1 C           4.7088   -1.6523    0.3571 C.3     1  UNL1       -0.0075
      2 C           3.8051   -2.8752    0.1958 C.2     1  UNL1       -0.0790
      3 C           2.5088   -2.5142    0.0692 C.2     1  UNL1       -0.0568
      4 C           2.4048   -1.0992    0.1284 C.ar    1  UNL1       -0.0059
      5 C           3.7008   -0.5507    0.3059 C.ar    1  UNL1       -0.0206
      6 C           3.6941    0.8188    0.4127 C.ar    1  UNL1        0.0320
      7 S           2.0644    1.3948    0.2716 S.2     1  UNL1       -0.0863
      8 C           1.3906   -0.1855    0.0806 C.ar    1  UNL1        0.0345
      9 C          -0.0135   -0.4018   -0.1105 C.ar    1  UNL1        0.0363
     10 S          -1.2331    0.3606    0.8704 S.2     1  UNL1       -0.0844
     11 C          -2.5520   -0.4118    0.0498 C.ar    1  UNL1        0.0525
     12 C          -3.9280   -0.2113    0.4008 C.ar    1  UNL1        0.0553
     13 S          -4.9610   -1.5547    0.7387 S.2     1  UNL1       -0.0917
     14 C          -6.3087   -0.5522    1.0787 C.ar    1  UNL1        0.0038
     15 C          -5.9909    0.7730    0.9368 C.ar    1  UNL1        0.0968
     16 N          -6.8923    1.7727    1.1432 N.ar    1  UNL1       -0.2514
     17 C          -6.3177    2.9886    0.9297 C.ar    1  UNL1        0.0464
     18 C          -4.9878    3.1955    0.5449 C.ar    1  UNL1        0.0464
     19 N          -4.0730    2.2124    0.3283 N.ar    1  UNL1       -0.2508
     20 C          -4.6155    0.9776    0.5443 C.ar    1  UNL1        0.1045
     21 C          -2.0338   -1.1993   -0.9205 C.ar    1  UNL1        0.0626
     22 N          -2.7077   -1.9767   -1.8215 N.ar    1  UNL1       -0.3597
     23 C          -1.6586   -2.5233   -2.5557 C.ar    1  UNL1        0.0028
     24 C          -0.4077   -2.0659   -2.0922 C.ar    1  UNL1       -0.0355
     25 C          -0.6572   -1.1901   -1.0020 C.ar    1  UNL1        0.0156
     26 C           4.8167    1.7020    0.5980 C.ar    1  UNL1        0.0456
     27 C           6.1257    1.5114    0.1877 C.ar    1  UNL1        0.0430
     28 N           7.0260    2.5103    0.5121 N.ar    1  UNL1       -0.2551
     29 C           6.3917    3.4582    1.1634 C.ar    1  UNL1        0.0653
     30 S           4.7184    3.2097    1.4244 S.2     1  UNL1       -0.0749
     31 H           5.4219   -1.5929   -0.4696 H       1  UNL1        0.0356
     32 H           5.2328   -1.6797    1.3164 H       1  UNL1        0.0356
     33 H           4.1709   -3.8913    0.1930 H       1  UNL1        0.0575
     34 H           1.6736   -3.1914   -0.0450 H       1  UNL1        0.0621
     35 H          -7.2606   -0.9768    1.3632 H       1  UNL1        0.0715
     36 H          -6.9788    3.8377    1.0803 H       1  UNL1        0.0845
     37 H          -4.6140    4.2049    0.3957 H       1  UNL1        0.0845
     38 H          -3.7099   -2.0989   -1.9066 H       1  UNL1        0.1654
     39 H          -1.8859   -3.1996   -3.3700 H       1  UNL1        0.0807
     40 H           0.5517   -2.3374   -2.5126 H       1  UNL1        0.0639
     41 H           6.4880    0.6548   -0.3666 H       1  UNL1        0.0841
     42 H           6.8928    4.3490    1.5191 H       1  UNL1        0.0907
@<TRIPOS>BOND
     1     1     2    1
     2     2     3    2
     3     3     4    1
     4     4     5   ar
     5     5     6   ar
     6     6     7   ar
     7     7     8   ar
     8     8     9    1
     9     9    10   ar
    10    10    11   ar
    11    11    12    1
    12    12    13   ar
    13    13    14   ar
    14    14    15   ar
    15    15    16   ar
    16    16    17   ar
    17    17    18   ar
    18    18    19   ar
    19    19    20   ar
    20    11    21   ar
    21    21    22   ar
    22    22    23   ar
    23    23    24   ar
    24    24    25   ar
    25     6    26    1
    26    26    27   ar
    27    27    28   ar
    28    28    29   ar
    29    29    30   ar
    30     5     1    1
    31    25     9   ar
    32    30    26   ar
    33     8     4   ar
    34    20    12   ar
    35    25    21   ar
    36    20    15   ar
    37     1    31    1
    38     1    32    1
    39     2    33    1
    40     3    34    1
    41    14    35    1
    42    17    36    1
    43    18    37    1
    44    22    38    1
    45    23    39    1
    46    24    40    1
    47    27    41    1
    48    29    42    1
