@<TRIPOS>MOLECULE
*****
 45 51 0 0 0
SMALL
GASTEIGER

@<TRIPOS>ATOM
      1 C          -3.7831    2.2795   -0.2835 C.3     1  UNL1       -0.0075
      2 C          -2.5892    3.2223   -0.4568 C.2     1  UNL1       -0.0791
      3 C          -1.4172    2.5626   -0.3162 C.2     1  UNL1       -0.0568
      4 C          -1.6777    1.1927   -0.0502 C.ar    1  UNL1       -0.0059
      5 C          -3.0790    0.9896   -0.0268 C.ar    1  UNL1       -0.0211
      6 C          -3.4264   -0.3182    0.2000 C.ar    1  UNL1        0.0240
      7 S          -1.9942   -1.2747    0.3929 S.2     1  UNL1       -0.0868
      8 C          -0.9308    0.0699    0.1645 C.ar    1  UNL1        0.0350
      9 C           0.4901   -0.0775    0.2169 C.ar    1  UNL1        0.0414
     10 S           1.3756   -1.0789   -0.8667 S.2     1  UNL1       -0.0854
     11 C           2.9021   -0.6789   -0.1642 C.ar    1  UNL1        0.0368
     12 C           4.1425   -1.2166   -0.6563 C.ar    1  UNL1        0.0539
     13 S           4.3443   -2.9155   -0.9023 S.2     1  UNL1       -0.0918
     14 C           5.9640   -2.7418   -1.4339 C.ar    1  UNL1        0.0038
     15 C           6.3510   -1.4277   -1.4263 C.ar    1  UNL1        0.0968
     16 N           7.5939   -1.0233   -1.8089 N.ar    1  UNL1       -0.2514
     17 C           7.7099    0.3294   -1.7144 C.ar    1  UNL1        0.0464
     18 C           6.7001    1.1962   -1.2806 C.ar    1  UNL1        0.0464
     19 N           5.4538    0.8154   -0.8880 N.ar    1  UNL1       -0.2508
     20 C           5.3036   -0.5405   -0.9747 C.ar    1  UNL1        0.1044
     21 C           2.6666    0.1897    0.8523 C.ar    1  UNL1        0.0052
     22 C           3.4966    0.8490    1.7998 C.ar    1  UNL1       -0.0458
     23 C           2.7747    1.6509    2.6894 C.ar    1  UNL1       -0.0231
     24 S           1.0331    1.6779    2.4741 S.2     1  UNL1       -0.0955
     25 C           1.3363    0.5414    1.0971 C.ar    1  UNL1        0.0352
     26 C          -4.7508   -0.9317    0.3078 C.ar    1  UNL1       -0.0110
     27 C          -5.7125   -0.3802    1.1662 C.ar    1  UNL1       -0.0535
     28 C          -6.9854   -0.9471    1.2686 C.ar    1  UNL1       -0.0612
     29 C          -7.3116   -2.0698    0.5108 C.ar    1  UNL1       -0.0617
     30 C          -6.3668   -2.6265   -0.3487 C.ar    1  UNL1       -0.0612
     31 C          -5.0935   -2.0602   -0.4505 C.ar    1  UNL1       -0.0535
     32 H          -4.3836    2.2408   -1.1966 H       1  UNL1        0.0356
     33 H          -4.3968    2.5874    0.5673 H       1  UNL1        0.0356
     34 H          -2.6884    4.2769   -0.6660 H       1  UNL1        0.0575
     35 H          -0.4317    3.0000   -0.3955 H       1  UNL1        0.0621
     36 H           6.5484   -3.6026   -1.7248 H       1  UNL1        0.0715
     37 H           8.6780    0.7251   -2.0091 H       1  UNL1        0.0845
     38 H           6.8827    2.2666   -1.2391 H       1  UNL1        0.0845
     39 H           4.5752    0.7597    1.8467 H       1  UNL1        0.0629
     40 H           3.1806    2.2496    3.4933 H       1  UNL1        0.0694
     41 H          -5.4715    0.4883    1.7747 H       1  UNL1        0.0624
     42 H          -7.7195   -0.5140    1.9430 H       1  UNL1        0.0618
     43 H          -8.3012   -2.5120    0.5910 H       1  UNL1        0.0618
     44 H          -6.6191   -3.5016   -0.9419 H       1  UNL1        0.0618
     45 H          -4.3733   -2.5037   -1.1346 H       1  UNL1        0.0624
@<TRIPOS>BOND
     1     1     2    1
     2     2     3    2
     3     3     4    1
     4     4     5   ar
     5     5     6   ar
     6     6     7   ar
     7     7     8   ar
     8     8     9    1
     9     9    10   ar
    10    10    11   ar
    11    11    12    1
    12    12    13   ar
    13    13    14   ar
    14    14    15   ar
    15    15    16   ar
    16    16    17   ar
    17    17    18   ar
    18    18    19   ar
    19    19    20   ar
    20    11    21   ar
    21    21    22   ar
    22    22    23   ar
    23    23    24   ar
    24    24    25   ar
    25     6    26    1
    26    26    27   ar
    27    27    28   ar
    28    28    29   ar
    29    29    30   ar
    30    30    31   ar
    31     5     1    1
    32    25     9   ar
    33    31    26   ar
    34     8     4   ar
    35    20    12   ar
    36    25    21   ar
    37    20    15   ar
    38     1    32    1
    39     1    33    1
    40     2    34    1
    41     3    35    1
    42    14    36    1
    43    17    37    1
    44    18    38    1
    45    22    39    1
    46    23    40    1
    47    27    41    1
    48    28    42    1
    49    29    43    1
    50    30    44    1
    51    31    45    1
