@<TRIPOS>MOLECULE
*****
 46 53 0 0 0
SMALL
GASTEIGER

@<TRIPOS>ATOM
      1 C           3.2072   -1.7462    2.7263 C.3     1  UNL1       -0.0075
      2 C           1.9459   -2.3905    3.3016 C.2     1  UNL1       -0.0790
      3 C           0.8431   -1.9993    2.6257 C.2     1  UNL1       -0.0568
      4 C           1.2161   -1.1083    1.5837 C.ar    1  UNL1       -0.0059
      5 C           2.6261   -0.9404    1.6102 C.ar    1  UNL1       -0.0206
      6 C           3.0909   -0.1224    0.6091 C.ar    1  UNL1        0.0312
      7 S           1.7500    0.4376   -0.3348 S.2     1  UNL1       -0.0863
      8 C           0.5702   -0.4235    0.5924 C.ar    1  UNL1        0.0345
      9 C          -0.8280   -0.3455    0.2768 C.ar    1  UNL1        0.0363
     10 S          -2.0598   -0.2188    1.5031 S.2     1  UNL1       -0.0845
     11 C          -3.3629   -0.1483    0.3651 C.ar    1  UNL1        0.0510
     12 C          -4.7351    0.0016    0.7286 C.ar    1  UNL1        0.0387
     13 S          -5.5181   -1.0369    1.8917 S.2     1  UNL1       -0.0917
     14 C          -7.0552   -0.2486    1.7361 C.ar    1  UNL1        0.0192
     15 C          -6.9119    0.7439    0.8403 C.ar    1  UNL1        0.1424
     16 O          -7.8776    1.6112    0.4335 O.2     1  UNL1       -0.4624
     17 C          -7.1413    2.3809   -0.4491 C.ar    1  UNL1        0.0932
     18 C          -5.8014    1.9905   -0.5718 C.ar    1  UNL1       -0.0150
     19 C          -5.6612    0.8876    0.2920 C.ar    1  UNL1        0.0355
     20 C          -2.8371   -0.2338   -0.8773 C.ar    1  UNL1        0.0626
     21 N          -3.5042   -0.2469   -2.0713 N.ar    1  UNL1       -0.3597
     22 C          -2.4509   -0.3531   -2.9749 C.ar    1  UNL1        0.0028
     23 C          -1.2056   -0.4107   -2.3155 C.ar    1  UNL1       -0.0355
     24 C          -1.4621   -0.3336   -0.9197 C.ar    1  UNL1        0.0156
     25 C           4.4413    0.2735    0.3060 C.ar    1  UNL1        0.0354
     26 S           5.6824    0.3864    1.5322 S.2     1  UNL1       -0.0934
     27 C           6.9115    0.9000    0.4241 C.ar    1  UNL1        0.0002
     28 C           6.3572    0.9645   -0.8016 C.ar    1  UNL1        0.0542
     29 N           6.9834    1.3232   -1.9594 N.ar    1  UNL1       -0.3602
     30 C           5.9440    1.2013   -2.8777 C.ar    1  UNL1        0.0028
     31 C           4.7489    0.7820   -2.2551 C.ar    1  UNL1       -0.0355
     32 C           5.0226    0.6275   -0.8668 C.ar    1  UNL1        0.0149
     33 H           3.6880   -1.1177    3.4807 H       1  UNL1        0.0356
     34 H           3.8996   -2.5094    2.3604 H       1  UNL1        0.0356
     35 H           1.9534   -3.0702    4.1405 H       1  UNL1        0.0575
     36 H          -0.1669   -2.3214    2.8361 H       1  UNL1        0.0621
     37 H          -7.9374   -0.5393    2.2871 H       1  UNL1        0.0731
     38 H          -7.7090    3.1778   -0.9123 H       1  UNL1        0.1030
     39 H          -5.0552    2.4648   -1.1938 H       1  UNL1        0.0655
     40 H          -4.5046   -0.2036   -2.2256 H       1  UNL1        0.1654
     41 H          -2.6701   -0.3891   -4.0346 H       1  UNL1        0.0807
     42 H          -0.2447   -0.5059   -2.8043 H       1  UNL1        0.0639
     43 H           7.9245    1.1125    0.7349 H       1  UNL1        0.0714
     44 H           7.9491    1.5989   -2.0880 H       1  UNL1        0.1653
     45 H           6.1353    1.4234   -3.9198 H       1  UNL1        0.0807
     46 H           3.8096    0.6136   -2.7649 H       1  UNL1        0.0639
@<TRIPOS>BOND
     1     1     2    1
     2     2     3    2
     3     3     4    1
     4     4     5   ar
     5     5     6   ar
     6     6     7   ar
     7     7     8   ar
     8     8     9    1
     9     9    10   ar
    10    10    11   ar
    11    11    12    1
    12    12    13   ar
    13    13    14   ar
    14    14    15   ar
    15    15    16   ar
    16    16    17   ar
    17    17    18   ar
    18    18    19   ar
    19    11    20   ar
    20    20    21   ar
    21    21    22   ar
    22    22    23   ar
    23    23    24   ar
    24     6    25    1
    25    25    26   ar
    26    26    27   ar
    27    27    28   ar
    28    28    29   ar
    29    29    30   ar
    30    30    31   ar
    31    31    32   ar
    32     5     1    1
    33    24     9   ar
    34    32    25   ar
    35     8     4   ar
    36    19    12   ar
    37    24    20   ar
    38    32    28   ar
    39    19    15   ar
    40     1    33    1
    41     1    34    1
    42     2    35    1
    43     3    36    1
    44    14    37    1
    45    17    38    1
    46    18    39    1
    47    21    40    1
    48    22    41    1
    49    23    42    1
    50    27    43    1
    51    29    44    1
    52    30    45    1
    53    31    46    1
