@<TRIPOS>MOLECULE
*****
 46 53 0 0 0
SMALL
GASTEIGER

@<TRIPOS>ATOM
      1 C          -1.9154    3.4992   -0.1394 C.3     1  UNL1        0.0000
      2 C          -0.4632    3.8812    0.1547 C.2     1  UNL1        0.0000
      3 C           0.3370    2.7917    0.1783 C.2     1  UNL1        0.0000
      4 C          -0.4384    1.6292   -0.0774 C.ar    1  UNL1        0.0000
      5 C          -1.7893    2.0177   -0.2660 C.ar    1  UNL1        0.0000
      6 C          -2.6264    0.9538   -0.4851 C.ar    1  UNL1        0.0000
      7 S          -1.7100   -0.5123   -0.4874 S.2     1  UNL1        0.0000
      8 C          -0.2074    0.2837   -0.1587 C.ar    1  UNL1        0.0000
      9 C           1.0183   -0.4432   -0.0362 C.ar    1  UNL1        0.0000
     10 S           2.5095    0.0282   -0.7806 S.2     1  UNL1        0.0000
     11 C           3.3989   -1.3373   -0.1610 C.ar    1  UNL1        0.0000
     12 C           4.7870   -1.5486   -0.4555 C.ar    1  UNL1        0.0000
     13 S           5.4046   -3.1213   -0.8314 S.2     1  UNL1        0.0000
     14 C           7.0128   -2.5559   -1.0620 C.ar    1  UNL1        0.0000
     15 C           7.0768   -1.2097   -0.8497 C.ar    1  UNL1        0.0000
     16 S           8.4732   -0.0751   -0.9305 S.2     1  UNL1        0.0000
     17 C           7.3034    1.1541   -0.4769 C.ar    1  UNL1        0.0000
     18 C           5.9864    0.7180   -0.2904 C.ar    1  UNL1        0.0000
     19 C           5.8292   -0.6789   -0.5164 C.ar    1  UNL1        0.0000
     20 C           2.5309   -2.0772    0.5707 C.ar    1  UNL1        0.0000
     21 C           2.4878   -3.2465    1.3542 C.ar    1  UNL1        0.0000
     22 C           1.1677   -3.3333    1.8100 C.ar    1  UNL1        0.0000
     23 O           0.3531   -2.3028    1.3837 O.2     1  UNL1        0.0000
     24 C           1.2458   -1.5900    0.6381 C.ar    1  UNL1        0.0000
     25 C          -4.0472    0.9594   -0.7013 C.ar    1  UNL1        0.0000
     26 S          -4.7774    2.0504   -1.8348 S.2     1  UNL1        0.0000
     27 C          -6.3726    1.4696   -1.5244 C.ar    1  UNL1        0.0000
     28 C          -6.3489    0.4793   -0.5813 C.ar    1  UNL1        0.0000
     29 C          -7.4173   -0.2767   -0.0036 C.2     1  UNL1        0.0000
     30 C          -7.0358   -1.1786    0.9265 C.2     1  UNL1        0.0000
     31 SI         -5.1335   -1.1585    1.1762 Si      1  UNL1        0.0000
     32 C          -5.0292    0.1995   -0.1310 C.ar    1  UNL1        0.0000
     33 H          -2.2513    3.9648   -1.0697 H       1  UNL1        0.0000
     34 H          -2.5677    3.7832    0.6911 H       1  UNL1        0.0000
     35 H          -0.1378    4.8974    0.3205 H       1  UNL1        0.0000
     36 H           1.4004    2.7994    0.3702 H       1  UNL1        0.0000
     37 H           7.8271   -3.2135   -1.3336 H       1  UNL1        0.0000
     38 H           7.6703    2.1657   -0.3674 H       1  UNL1        0.0000
     39 H           5.1940    1.3973   -0.0016 H       1  UNL1        0.0000
     40 H           3.2826   -3.9435    1.5780 H       1  UNL1        0.0000
     41 H           0.6648   -4.0569    2.4385 H       1  UNL1        0.0000
     42 H          -7.2185    1.8933   -2.0470 H       1  UNL1        0.0000
     43 H          -8.4504   -0.1279   -0.2959 H       1  UNL1        0.0000
     44 H          -7.6589   -1.8535    1.4904 H       1  UNL1        0.0000
     45 H          -4.5593   -2.4644    0.7674 H       1  UNL1        0.0000
     46 H          -4.8058   -0.7101    2.5529 H       1  UNL1        0.0000
@<TRIPOS>BOND
     1     1     2    1
     2     2     3    2
     3     3     4    1
     4     4     5   ar
     5     5     6   ar
     6     6     7   ar
     7     7     8   ar
     8     8     9    1
     9     9    10   ar
    10    10    11   ar
    11    11    12    1
    12    12    13   ar
    13    13    14   ar
    14    14    15   ar
    15    15    16   ar
    16    16    17   ar
    17    17    18   ar
    18    18    19   ar
    19    11    20   ar
    20    20    21   ar
    21    21    22   ar
    22    22    23   ar
    23    23    24   ar
    24     6    25    1
    25    25    26   ar
    26    26    27   ar
    27    27    28   ar
    28    28    29    1
    29    29    30    2
    30    30    31    1
    31    31    32    1
    32     5     1    1
    33    24     9   ar
    34    32    25   ar
    35     8     4   ar
    36    19    12   ar
    37    24    20   ar
    38    32    28   ar
    39    19    15   ar
    40     1    33    1
    41     1    34    1
    42     2    35    1
    43     3    36    1
    44    14    37    1
    45    17    38    1
    46    18    39    1
    47    21    40    1
    48    22    41    1
    49    27    42    1
    50    29    43    1
    51    30    44    1
    52    31    45    1
    53    31    46    1
