@<TRIPOS>MOLECULE
*****
 45 52 0 0 0
SMALL
GASTEIGER

@<TRIPOS>ATOM
      1 C          -3.1005   -2.2083    1.6702 C.3     1  UNL1       -0.0075
      2 C          -1.8062   -2.8374    2.1934 C.2     1  UNL1       -0.0791
      3 C          -0.7167   -2.2228    1.6777 C.2     1  UNL1       -0.0568
      4 C          -1.1309   -1.1841    0.8017 C.ar    1  UNL1       -0.0059
      5 C          -2.5467   -1.1479    0.7804 C.ar    1  UNL1       -0.0211
      6 C          -3.0376   -0.1533   -0.0226 C.ar    1  UNL1        0.0261
      7 S          -1.7368    0.7153   -0.7545 S.2     1  UNL1       -0.0868
      8 C          -0.5186   -0.2405    0.0240 C.ar    1  UNL1        0.0346
      9 C           0.8799   -0.0201   -0.1975 C.ar    1  UNL1        0.0379
     10 S           1.6182    1.5542   -0.0974 S.2     1  UNL1       -0.0828
     11 C           3.2122    0.9666   -0.4500 C.ar    1  UNL1        0.0699
     12 C           4.3844    1.7832   -0.5227 C.ar    1  UNL1        0.0377
     13 S           4.3806    3.3310   -1.2991 S.2     1  UNL1       -0.0943
     14 C           6.0479    3.6166   -0.9837 C.ar    1  UNL1       -0.0094
     15 C           6.5876    2.5665   -0.3001 C.ar    1  UNL1        0.0269
     16 S           8.2604    2.2981    0.3119 S.2     1  UNL1       -0.0961
     17 C           7.6291    0.7761    0.9208 C.ar    1  UNL1       -0.0231
     18 C           6.2760    0.5216    0.6693 C.ar    1  UNL1       -0.0459
     19 C           5.6437    1.5667   -0.0614 C.ar    1  UNL1        0.0046
     20 C           3.1198   -0.3679   -0.6325 C.ar    1  UNL1        0.1506
     21 O           4.1257   -1.2326   -0.9509 O.2     1  UNL1       -0.4617
     22 C           3.4124   -2.4139   -1.0206 C.ar    1  UNL1        0.0932
     23 C           2.0454   -2.2745   -0.7559 C.ar    1  UNL1       -0.0150
     24 C           1.8607   -0.9040   -0.4958 C.ar    1  UNL1        0.0361
     25 C          -4.4093    0.2055   -0.3232 C.ar    1  UNL1        0.0172
     26 C          -5.2023   -0.5281   -1.2309 C.ar    1  UNL1       -0.0513
     27 C          -6.5452   -0.1950   -1.5245 C.ar    1  UNL1       -0.0590
     28 C          -7.2109    0.8946   -0.9349 C.ar    1  UNL1       -0.0335
     29 C          -6.4649    1.6632   -0.0073 C.ar    1  UNL1        0.1005
     30 N          -6.9187    2.7336    0.6631 N.ar    1  UNL1       -0.1908
     31 S          -5.6617    3.2599    1.6117 S.2     1  UNL1        0.1165
     32 N          -4.4925    2.1488    1.2274 N.ar    1  UNL1       -0.1901
     33 C          -5.0288    1.3167    0.3158 C.ar    1  UNL1        0.1080
     34 H          -3.6910   -2.9412    1.1129 H       1  UNL1        0.0356
     35 H          -3.6866   -1.7857    2.4913 H       1  UNL1        0.0356
     36 H          -1.7849   -3.6571    2.8969 H       1  UNL1        0.0575
     37 H           0.3110   -2.4683    1.9056 H       1  UNL1        0.0621
     38 H           6.5521    4.5191   -1.2994 H       1  UNL1        0.0705
     39 H           8.3196    0.1327    1.4497 H       1  UNL1        0.0694
     40 H           5.7881   -0.3858    1.0035 H       1  UNL1        0.0629
     41 H           4.0164   -3.2750   -1.2760 H       1  UNL1        0.1030
     42 H           1.3100   -3.0662   -0.7698 H       1  UNL1        0.0655
     43 H          -4.7621   -1.3885   -1.7370 H       1  UNL1        0.0624
     44 H          -7.0884   -0.8103   -2.2429 H       1  UNL1        0.0618
     45 H          -8.2399    1.1386   -1.1707 H       1  UNL1        0.0640
@<TRIPOS>BOND
     1     1     2    1
     2     2     3    2
     3     3     4    1
     4     4     5   ar
     5     5     6   ar
     6     6     7   ar
     7     7     8   ar
     8     8     9    1
     9     9    10   ar
    10    10    11   ar
    11    11    12    1
    12    12    13   ar
    13    13    14   ar
    14    14    15   ar
    15    15    16   ar
    16    16    17   ar
    17    17    18   ar
    18    18    19   ar
    19    11    20   ar
    20    20    21   ar
    21    21    22   ar
    22    22    23   ar
    23    23    24   ar
    24     6    25    1
    25    25    26   ar
    26    26    27   ar
    27    27    28   ar
    28    28    29   ar
    29    29    30   ar
    30    30    31   ar
    31    31    32   ar
    32    32    33   ar
    33     5     1    1
    34    24     9   ar
    35    33    25   ar
    36     8     4   ar
    37    19    12   ar
    38    24    20   ar
    39    33    29   ar
    40    19    15   ar
    41     1    34    1
    42     1    35    1
    43     2    36    1
    44     3    37    1
    45    14    38    1
    46    17    39    1
    47    18    40    1
    48    22    41    1
    49    23    42    1
    50    26    43    1
    51    27    44    1
    52    28    45    1
