@<TRIPOS>MOLECULE
*****
 42 47 0 0 0
SMALL
GASTEIGER

@<TRIPOS>ATOM
      1 C          -0.0801    3.1806   -1.4147 C.3     1  UNL1        0.0000
      2 C          -1.4510    3.7866   -1.7207 C.2     1  UNL1        0.0000
      3 C          -2.4430    3.0753   -1.1396 C.2     1  UNL1        0.0000
      4 C          -1.8843    1.9818   -0.4268 C.ar    1  UNL1        0.0000
      5 C          -0.4744    2.0131   -0.5723 C.ar    1  UNL1        0.0000
      6 C           0.1531    0.9693    0.0609 C.ar    1  UNL1        0.0000
      7 S          -1.0305   -0.0222    0.8475 S.2     1  UNL1        0.0000
      8 C          -2.3649    0.9402    0.3151 C.ar    1  UNL1        0.0000
      9 C          -3.7181    0.6119    0.6643 C.ar    1  UNL1        0.0000
     10 S          -4.7586    1.7755    1.4181 S.2     1  UNL1        0.0000
     11 C          -6.0905    0.6799    1.5032 C.ar    1  UNL1        0.0000
     12 C          -5.7506   -0.5334    0.9704 C.ar    1  UNL1        0.0000
     13 C          -6.5215   -1.7285    0.8146 C.2     1  UNL1        0.0000
     14 C          -5.8666   -2.7531    0.2265 C.2     1  UNL1        0.0000
     15 SI         -4.0652   -2.2641   -0.2184 Si      1  UNL1        0.0000
     16 C          -4.4070   -0.5568    0.5065 C.ar    1  UNL1        0.0000
     17 C           1.5658    0.6903    0.1242 C.ar    1  UNL1        0.0000
     18 C           2.5852    1.6128    0.2396 C.ar    1  UNL1        0.0000
     19 C           3.8755    1.0056    0.2568 C.ar    1  UNL1        0.0000
     20 C           3.8321   -0.3746    0.1467 C.ar    1  UNL1        0.0000
     21 S           2.1930   -0.8991    0.0255 S.2     1  UNL1        0.0000
     22 C           4.8966   -1.3114    0.1385 C.2     1  UNL1        0.0000
     23 SI          6.3888   -1.1978    1.2878 Si      1  UNL1        0.0000
     24 C           7.0399   -2.7612    0.4681 C.2     1  UNL1        0.0000
     25 C           6.1938   -3.1977   -0.4826 C.2     1  UNL1        0.0000
     26 C           4.9963   -2.3895   -0.6675 C.2     1  UNL1        0.0000
     27 H           0.4209    2.8678   -2.3350 H       1  UNL1        0.0000
     28 H           0.5390    3.8932   -0.8630 H       1  UNL1        0.0000
     29 H          -1.5915    4.6693   -2.3266 H       1  UNL1        0.0000
     30 H          -3.4998    3.2937   -1.2069 H       1  UNL1        0.0000
     31 H          -7.0302    0.9970    1.9328 H       1  UNL1        0.0000
     32 H          -7.5515   -1.7953    1.1456 H       1  UNL1        0.0000
     33 H          -6.2404   -3.7399    0.0073 H       1  UNL1        0.0000
     34 H          -3.8797   -2.2792   -1.6912 H       1  UNL1        0.0000
     35 H          -3.1087   -3.0907    0.5589 H       1  UNL1        0.0000
     36 H           2.4222    2.6801    0.3215 H       1  UNL1        0.0000
     37 H           4.7968    1.5705    0.3375 H       1  UNL1        0.0000
     38 H           6.0555   -1.4202    2.7172 H       1  UNL1        0.0000
     39 H           7.2477   -0.0198    1.0007 H       1  UNL1        0.0000
     40 H           7.9753   -3.2095    0.7633 H       1  UNL1        0.0000
     41 H           6.3641   -4.0832   -1.0829 H       1  UNL1        0.0000
     42 H           4.2663   -2.6673   -1.4188 H       1  UNL1        0.0000
@<TRIPOS>BOND
     1     1     2    1
     2     2     3    2
     3     3     4    1
     4     4     5   ar
     5     5     6   ar
     6     6     7   ar
     7     7     8   ar
     8     8     9    1
     9     9    10   ar
    10    10    11   ar
    11    11    12   ar
    12    12    13    1
    13    13    14    2
    14    14    15    1
    15    15    16    1
    16     6    17    1
    17    17    18   ar
    18    18    19   ar
    19    19    20   ar
    20    20    21   ar
    21    20    22    1
    22    22    23    1
    23    23    24    1
    24    24    25    2
    25    25    26    1
    26     5     1    1
    27    16     9   ar
    28    21    17   ar
    29    26    22    2
    30     8     4   ar
    31    16    12   ar
    32     1    27    1
    33     1    28    1
    34     2    29    1
    35     3    30    1
    36    11    31    1
    37    13    32    1
    38    14    33    1
    39    15    34    1
    40    15    35    1
    41    18    36    1
    42    19    37    1
    43    23    38    1
    44    23    39    1
    45    24    40    1
    46    25    41    1
    47    26    42    1
