@<TRIPOS>MOLECULE
*****
 37 42 0 0 0
SMALL
GASTEIGER

@<TRIPOS>ATOM
      1 SI          0.7332   -0.8136    0.8368 Si      1  UNL1        0.0000
      2 C           1.3882    0.1986   -0.6173 C.2     1  UNL1        0.0000
      3 C           0.4067    0.6851   -1.4039 C.2     1  UNL1        0.0000
      4 C          -0.9233    0.3144   -0.9367 C.ar    1  UNL1        0.0000
      5 C          -1.0562   -0.4888    0.2447 C.ar    1  UNL1        0.0000
      6 C          -2.3101   -0.9327    0.8248 C.ar    1  UNL1        0.0000
      7 C          -2.3926   -1.7231    1.9899 C.ar    1  UNL1        0.0000
      8 C          -3.6232   -2.1337    2.5223 C.ar    1  UNL1        0.0000
      9 C          -4.8208   -1.7706    1.9112 C.ar    1  UNL1        0.0000
     10 C          -4.8023   -0.9920    0.7595 C.ar    1  UNL1        0.0000
     11 C          -3.5654   -0.5755    0.2186 C.ar    1  UNL1        0.0000
     12 C          -3.4029    0.2182   -0.9471 C.ar    1  UNL1        0.0000
     13 C          -4.3674    0.7359   -1.7737 C.ar    1  UNL1        0.0000
     14 O          -3.7799    1.4443   -2.7872 O.2     1  UNL1        0.0000
     15 C          -2.4252    1.3780   -2.6058 C.ar    1  UNL1        0.0000
     16 C          -2.1504    0.6359   -1.4888 C.ar    1  UNL1        0.0000
     17 C           2.7735    0.3932   -0.8359 C.ar    1  UNL1        0.0000
     18 S           3.4733    0.2641   -2.4461 S.2     1  UNL1        0.0000
     19 C           5.0902    0.5815   -1.9124 C.ar    1  UNL1        0.0000
     20 C           5.0535    0.7725   -0.5807 C.ar    1  UNL1        0.0000
     21 N           6.1132    1.0550    0.2306 N.ar    1  UNL1        0.0000
     22 C           5.4857    1.1537    1.4699 C.ar    1  UNL1        0.0000
     23 C           4.0955    0.9325    1.3663 C.ar    1  UNL1        0.0000
     24 C           3.8083    0.6712   -0.0022 C.ar    1  UNL1        0.0000
     25 H           1.0790   -2.2568    0.7553 H       1  UNL1        0.0000
     26 H           0.9890   -0.1807    2.1581 H       1  UNL1        0.0000
     27 H           0.5528    1.2915   -2.2871 H       1  UNL1        0.0000
     28 H          -1.4943   -2.0404    2.5139 H       1  UNL1        0.0000
     29 H          -3.6415   -2.7432    3.4232 H       1  UNL1        0.0000
     30 H          -5.7678   -2.0956    2.3341 H       1  UNL1        0.0000
     31 H          -5.7400   -0.7129    0.2885 H       1  UNL1        0.0000
     32 H          -5.4472    0.7079   -1.7988 H       1  UNL1        0.0000
     33 H          -1.8319    1.8998   -3.3429 H       1  UNL1        0.0000
     34 H           5.9315    0.6080   -2.5902 H       1  UNL1        0.0000
     35 H           7.0861    1.1637   -0.0282 H       1  UNL1        0.0000
     36 H           6.0829    1.3835    2.3431 H       1  UNL1        0.0000
     37 H           3.4000    0.9713    2.1941 H       1  UNL1        0.0000
@<TRIPOS>BOND
     1     1     2    1
     2     2     3    2
     3     3     4    1
     4     4     5   ar
     5     5     6   ar
     6     6     7   ar
     7     7     8   ar
     8     8     9   ar
     9     9    10   ar
    10    10    11   ar
    11    11    12   ar
    12    12    13   ar
    13    13    14   ar
    14    14    15   ar
    15    15    16   ar
    16     2    17    1
    17    17    18   ar
    18    18    19   ar
    19    19    20   ar
    20    20    21   ar
    21    21    22   ar
    22    22    23   ar
    23    23    24   ar
    24     5     1    1
    25    11     6   ar
    26    16    12   ar
    27    24    17   ar
    28    16     4   ar
    29    24    20   ar
    30     1    25    1
    31     1    26    1
    32     3    27    1
    33     7    28    1
    34     8    29    1
    35     9    30    1
    36    10    31    1
    37    13    32    1
    38    15    33    1
    39    19    34    1
    40    21    35    1
    41    22    36    1
    42    23    37    1
