@<TRIPOS>MOLECULE
*****
 44 50 0 0 0
SMALL
GASTEIGER

@<TRIPOS>ATOM
      1 SI          3.7249   -3.2981    1.9081 Si      1  UNL1        0.0000
      2 C           4.6822   -1.8194    1.3105 C.2     1  UNL1        0.0000
      3 C           3.8870   -0.9176    0.6949 C.ar    1  UNL1        0.0000
      4 C           4.3794    0.2702   -0.0363 C.ar    1  UNL1        0.0000
      5 C           5.7277    0.6719   -0.0066 C.ar    1  UNL1        0.0000
      6 C           6.1687    1.7637   -0.7539 C.ar    1  UNL1        0.0000
      7 C           5.2697    2.4687   -1.5413 C.ar    1  UNL1        0.0000
      8 C           3.9271    2.0882   -1.5698 C.ar    1  UNL1        0.0000
      9 C           3.4475    0.9923   -0.8189 C.ar    1  UNL1        0.0000
     10 C           1.9976    0.6452   -0.8116 C.ar    1  UNL1        0.0000
     11 N           1.2196    1.4366   -1.5986 N.ar    1  UNL1        0.0000
     12 C          -0.1143    1.2660   -1.5487 C.ar    1  UNL1        0.0000
     13 C          -0.7583    0.3769   -0.7010 C.ar    1  UNL1        0.0000
     14 C          -2.1609    0.3144   -0.6594 C.ar    1  UNL1        0.0000
     15 C          -2.7786   -0.5344    0.2453 C.ar    1  UNL1        0.0000
     16 N          -2.0623   -1.2907    1.1024 N.ar    1  UNL1        0.0000
     17 C          -0.7077   -1.2148    1.0334 C.ar    1  UNL1        0.0000
     18 C           0.0347   -0.4382    0.1276 C.ar    1  UNL1        0.0000
     19 C           1.4607   -0.3720    0.0092 C.ar    1  UNL1        0.0000
     20 C           2.4443   -1.2729    0.6741 C.ar    1  UNL1        0.0000
     21 C           2.1983   -2.5047    1.1732 C.2     1  UNL1        0.0000
     22 C          -4.2386   -0.6534    0.3533 C.ar    1  UNL1        0.0000
     23 S          -4.9403   -2.1537    0.8699 S.2     1  UNL1        0.0000
     24 C          -6.5422   -1.5642    0.7489 C.ar    1  UNL1        0.0000
     25 C          -6.5607   -0.2630    0.3246 C.ar    1  UNL1        0.0000
     26 N          -7.7160    0.4365    0.1490 N.ar    1  UNL1        0.0000
     27 C          -7.4536    1.7037   -0.2689 C.ar    1  UNL1        0.0000
     28 C          -6.1759    2.2267   -0.4970 C.ar    1  UNL1        0.0000
     29 N          -5.0073    1.5463   -0.3362 N.ar    1  UNL1        0.0000
     30 C          -5.2362    0.2670    0.0905 C.ar    1  UNL1        0.0000
     31 H           4.1042   -4.5469    1.2060 H       1  UNL1        0.0000
     32 H           3.6591   -3.3780    3.3866 H       1  UNL1        0.0000
     33 H           5.7547   -1.8059    1.4104 H       1  UNL1        0.0000
     34 H           6.4579    0.1403    0.5961 H       1  UNL1        0.0000
     35 H           7.2141    2.0590   -0.7220 H       1  UNL1        0.0000
     36 H           5.6044    3.3197   -2.1284 H       1  UNL1        0.0000
     37 H           3.2399    2.6689   -2.1837 H       1  UNL1        0.0000
     38 H          -0.6721    1.9206   -2.2145 H       1  UNL1        0.0000
     39 H          -2.7552    0.9330   -1.3252 H       1  UNL1        0.0000
     40 H          -0.2284   -1.8006    1.8092 H       1  UNL1        0.0000
     41 H           1.2848   -3.0726    1.1755 H       1  UNL1        0.0000
     42 H          -7.3855   -2.1933    0.9936 H       1  UNL1        0.0000
     43 H          -8.3324    2.3234   -0.4248 H       1  UNL1        0.0000
     44 H          -6.0620    3.2550   -0.8296 H       1  UNL1        0.0000
@<TRIPOS>BOND
     1     1     2    1
     2     2     3    2
     3     3     4   ar
     4     4     5   ar
     5     5     6   ar
     6     6     7   ar
     7     7     8   ar
     8     8     9   ar
     9     9    10   ar
    10    10    11   ar
    11    11    12   ar
    12    12    13   ar
    13    13    14   ar
    14    14    15   ar
    15    15    16   ar
    16    16    17   ar
    17    17    18   ar
    18    18    19   ar
    19    19    20   ar
    20    20    21    2
    21    15    22    1
    22    22    23   ar
    23    23    24   ar
    24    24    25   ar
    25    25    26   ar
    26    26    27   ar
    27    27    28   ar
    28    28    29   ar
    29    29    30   ar
    30    21     1    1
    31    30    22   ar
    32    20     3   ar
    33    30    25   ar
    34     9     4   ar
    35    19    10   ar
    36    18    13   ar
    37     1    31    1
    38     1    32    1
    39     2    33    1
    40     5    34    1
    41     6    35    1
    42     7    36    1
    43     8    37    1
    44    12    38    1
    45    14    39    1
    46    17    40    1
    47    21    41    1
    48    24    42    1
    49    27    43    1
    50    28    44    1
