@<TRIPOS>MOLECULE
*****
 41 47 0 0 0
SMALL
GASTEIGER

@<TRIPOS>ATOM
      1 C           0.8801    1.4694   -1.8673 C.3     1  UNL1       -0.0075
      2 C           0.6472    1.2027   -3.3552 C.2     1  UNL1       -0.0790
      3 C           0.0740   -0.0057   -3.5540 C.2     1  UNL1       -0.0568
      4 C          -0.1287   -0.6466   -2.3025 C.ar    1  UNL1       -0.0058
      5 C           0.3488    0.2071   -1.2762 C.ar    1  UNL1       -0.0206
      6 C           0.2243   -0.3413   -0.0269 C.ar    1  UNL1        0.0316
      7 S          -0.5075   -1.9013   -0.1434 S.2     1  UNL1       -0.0862
      8 C          -0.6321   -1.8441   -1.8730 C.ar    1  UNL1        0.0375
      9 C          -1.1937   -2.9260   -2.6238 C.ar    1  UNL1        0.0693
     10 S          -0.8849   -4.6100   -2.3140 S.2     1  UNL1       -0.0918
     11 C          -1.8903   -5.1556   -3.6250 C.ar    1  UNL1       -0.0128
     12 C          -2.4068   -4.0624   -4.2230 C.ar    1  UNL1        0.0278
     13 C          -3.2624   -3.7172   -5.2799 C.ar    1  UNL1       -0.0156
     14 C          -3.3133   -2.3179   -5.2586 C.ar    1  UNL1        0.0932
     15 O          -2.5491   -1.7367   -4.2639 O.2     1  UNL1       -0.4618
     16 C          -2.0296   -2.8559   -3.6826 C.ar    1  UNL1        0.1500
     17 C           0.5896    0.2320    1.2317 C.ar    1  UNL1        0.0412
     18 S          -0.0365    1.7380    1.7818 S.2     1  UNL1       -0.0829
     19 C           0.8373    1.6885    3.2689 C.ar    1  UNL1        0.0632
     20 C           0.7463    2.7224    4.2631 C.ar    1  UNL1        0.1419
     21 C          -0.0235    3.8778    4.2749 C.ar    1  UNL1       -0.0154
     22 C           0.2499    4.5629    5.4839 C.ar    1  UNL1       -0.0233
     23 C           1.1706    3.7954    6.1502 C.ar    1  UNL1        0.0926
     24 O           1.4759    2.6900    5.4285 O.2     1  UNL1       -0.4624
     25 C           1.5713    0.5463    3.2690 C.ar    1  UNL1        0.0076
     26 C           2.4846   -0.0392    4.1886 C.ar    1  UNL1       -0.0458
     27 C           3.0142   -1.2503    3.7328 C.ar    1  UNL1       -0.0231
     28 S           2.4664   -1.7939    2.1572 S.2     1  UNL1       -0.0955
     29 C           1.4619   -0.2865    2.1511 C.ar    1  UNL1        0.0353
     30 H           0.3137    2.3454   -1.5399 H       1  UNL1        0.0356
     31 H           1.9453    1.6002   -1.6577 H       1  UNL1        0.0356
     32 H           0.9108    1.9016   -4.1349 H       1  UNL1        0.0575
     33 H          -0.1921   -0.4260   -4.5137 H       1  UNL1        0.0621
     34 H          -2.0182   -6.2070   -3.8386 H       1  UNL1        0.0701
     35 H          -3.7858   -4.3625   -5.9705 H       1  UNL1        0.0655
     36 H          -3.8427   -1.6035   -5.8757 H       1  UNL1        0.1030
     37 H          -0.7083    4.1924    3.4993 H       1  UNL1        0.0656
     38 H          -0.1728    5.4974    5.8246 H       1  UNL1        0.0649
     39 H           1.6814    3.8909    7.0982 H       1  UNL1        0.1029
     40 H           2.7595    0.3885    5.1455 H       1  UNL1        0.0629
     41 H           3.7252   -1.8794    4.2509 H       1  UNL1        0.0694
@<TRIPOS>BOND
     1     1     2    1
     2     2     3    2
     3     3     4    1
     4     4     5   ar
     5     5     6   ar
     6     6     7   ar
     7     7     8   ar
     8     8     9    1
     9     9    10   ar
    10    10    11   ar
    11    11    12   ar
    12    12    13   ar
    13    13    14   ar
    14    14    15   ar
    15    15    16   ar
    16     6    17    1
    17    17    18   ar
    18    18    19   ar
    19    19    20    1
    20    20    21   ar
    21    21    22   ar
    22    22    23   ar
    23    23    24   ar
    24    19    25   ar
    25    25    26   ar
    26    26    27   ar
    27    27    28   ar
    28    28    29   ar
    29     5     1    1
    30    16     9   ar
    31    29    17   ar
    32     8     4   ar
    33    16    12   ar
    34    24    20   ar
    35    29    25   ar
    36     1    30    1
    37     1    31    1
    38     2    32    1
    39     3    33    1
    40    11    34    1
    41    13    35    1
    42    14    36    1
    43    21    37    1
    44    22    38    1
    45    23    39    1
    46    26    40    1
    47    27    41    1
