@<TRIPOS>MOLECULE
*****
 44 50 0 0 0
SMALL
GASTEIGER

@<TRIPOS>ATOM
      1 C           3.6037    1.4502    1.1119 C.3     1  UNL1        0.0000
      2 C           4.6352    0.4102    1.4457 C.2     1  UNL1        0.0000
      3 C           4.2074   -0.8300    1.1761 C.2     1  UNL1        0.0000
      4 C           2.8474   -0.7406    0.6462 C.ar    1  UNL1        0.0000
      5 C           2.4648    0.6049    0.6212 C.ar    1  UNL1        0.0000
      6 C           1.1797    0.9872    0.1941 C.ar    1  UNL1        0.0000
      7 C           0.7006    2.3206    0.0309 C.ar    1  UNL1        0.0000
      8 C           1.3880    3.5025    0.1897 C.ar    1  UNL1        0.0000
      9 N           0.5332    4.5355   -0.1279 N.ar    1  UNL1        0.0000
     10 C          -0.6952    4.0350   -0.4848 C.ar    1  UNL1        0.0000
     11 C          -0.6183    2.6653   -0.3915 C.ar    1  UNL1        0.0000
     12 C          -1.6420    1.7502   -0.6075 C.ar    1  UNL1        0.0000
     13 C          -2.9808    2.1318   -1.0744 C.ar    1  UNL1        0.0000
     14 C          -3.9794    1.2349   -1.0868 C.ar    1  UNL1        0.0000
     15 C          -3.7560   -0.0840   -0.5419 C.ar    1  UNL1        0.0000
     16 C          -4.7487   -0.9590   -0.2913 C.2     1  UNL1        0.0000
     17 SI         -4.1122   -2.4311    0.6625 Si      1  UNL1        0.0000
     18 C          -2.4219   -1.6377    0.6383 C.2     1  UNL1        0.0000
     19 C          -2.4018   -0.5077   -0.1026 C.ar    1  UNL1        0.0000
     20 C          -1.2193    0.4015   -0.3306 C.ar    1  UNL1        0.0000
     21 C           0.1979   -0.0145   -0.1444 C.ar    1  UNL1        0.0000
     22 C           0.7165   -1.3708   -0.3147 C.ar    1  UNL1        0.0000
     23 C           0.0162   -2.3822   -1.0207 C.ar    1  UNL1        0.0000
     24 C           0.4749   -3.6974   -1.1436 C.ar    1  UNL1        0.0000
     25 C           1.6888   -4.0532   -0.5878 C.ar    1  UNL1        0.0000
     26 C           2.4592   -3.0780    0.0364 C.ar    1  UNL1        0.0000
     27 C           2.0155   -1.7395    0.1428 C.ar    1  UNL1        0.0000
     28 H           3.9857    2.1082    0.3265 H       1  UNL1        0.0000
     29 H           3.3286    2.0151    2.0071 H       1  UNL1        0.0000
     30 H           5.6081    0.6496    1.8502 H       1  UNL1        0.0000
     31 H           4.7610   -1.7423    1.3230 H       1  UNL1        0.0000
     32 H           2.3994    3.7361    0.4826 H       1  UNL1        0.0000
     33 H           0.7747    5.5178   -0.0996 H       1  UNL1        0.0000
     34 H          -1.4998    4.7060   -0.7517 H       1  UNL1        0.0000
     35 H          -3.1431    3.1366   -1.4444 H       1  UNL1        0.0000
     36 H          -4.9678    1.5054   -1.4415 H       1  UNL1        0.0000
     37 H          -5.8004   -0.8302   -0.4909 H       1  UNL1        0.0000
     38 H          -4.6896   -2.5142    2.0259 H       1  UNL1        0.0000
     39 H          -4.1640   -3.6821   -0.1329 H       1  UNL1        0.0000
     40 H          -1.6033   -2.0942    1.1714 H       1  UNL1        0.0000
     41 H          -0.9165   -2.1439   -1.5283 H       1  UNL1        0.0000
     42 H          -0.1192   -4.4302   -1.6828 H       1  UNL1        0.0000
     43 H           2.0567   -5.0715   -0.6731 H       1  UNL1        0.0000
     44 H           3.4360   -3.3702    0.4134 H       1  UNL1        0.0000
@<TRIPOS>BOND
     1     1     2    1
     2     2     3    2
     3     3     4    1
     4     4     5   ar
     5     5     6   ar
     6     6     7   ar
     7     7     8   ar
     8     8     9   ar
     9     9    10   ar
    10    10    11   ar
    11    11    12   ar
    12    12    13   ar
    13    13    14   ar
    14    14    15   ar
    15    15    16    2
    16    16    17    1
    17    17    18    1
    18    18    19    2
    19    19    20   ar
    20    20    21   ar
    21    21    22   ar
    22    22    23   ar
    23    23    24   ar
    24    24    25   ar
    25    25    26   ar
    26    26    27   ar
    27     5     1    1
    28    21     6   ar
    29    27    22   ar
    30    27     4   ar
    31    11     7   ar
    32    20    12   ar
    33    19    15   ar
    34     1    28    1
    35     1    29    1
    36     2    30    1
    37     3    31    1
    38     8    32    1
    39     9    33    1
    40    10    34    1
    41    13    35    1
    42    14    36    1
    43    16    37    1
    44    17    38    1
    45    17    39    1
    46    18    40    1
    47    23    41    1
    48    24    42    1
    49    25    43    1
    50    26    44    1
