@<TRIPOS>MOLECULE
*****
 32 36 0 0 0
SMALL
GASTEIGER

@<TRIPOS>ATOM
      1 C          -2.6748   -2.2897   -0.1789 C.3     1  UNL1       -0.0066
      2 C          -4.0512   -1.6437   -0.1800 C.2     1  UNL1       -0.0790
      3 C          -4.0091   -0.3029   -0.0991 C.2     1  UNL1       -0.0572
      4 C          -2.6146    0.0417   -0.0386 C.ar    1  UNL1       -0.0107
      5 C          -1.7756   -1.0833   -0.0813 C.ar    1  UNL1       -0.0099
      6 C          -0.3680   -1.0701   -0.0401 C.ar    1  UNL1        0.0762
      7 N           0.2240   -2.2665   -0.0943 N.ar    1  UNL1       -0.2540
      8 C           1.5719   -2.3213   -0.0588 C.ar    1  UNL1        0.0360
      9 C           2.4215   -1.2257    0.0307 C.ar    1  UNL1        0.0008
     10 C           3.8169   -1.4110    0.0597 C.ar    1  UNL1       -0.0526
     11 C           4.6775   -0.3233    0.1491 C.ar    1  UNL1       -0.0611
     12 C           4.1478    0.9552    0.2099 C.ar    1  UNL1       -0.0611
     13 C           2.7601    1.1410    0.1811 C.ar    1  UNL1       -0.0533
     14 C           1.8458    0.0613    0.0907 C.ar    1  UNL1       -0.0066
     15 C           0.3960    0.1577    0.0548 C.ar    1  UNL1        0.0175
     16 C          -0.4902    1.3052    0.0976 C.ar    1  UNL1        0.0097
     17 C          -0.2008    2.6479    0.1857 C.ar    1  UNL1        0.0101
     18 N          -1.3926    3.3509    0.1933 N.ar    1  UNL1       -0.3659
     19 C          -2.4560    2.4862    0.1113 C.ar    1  UNL1        0.0100
     20 C          -1.9255    1.2255    0.0516 C.ar    1  UNL1        0.0075
     21 H          -2.5580   -2.9452    0.6890 H       1  UNL1        0.0356
     22 H          -2.5063   -2.8383   -1.1102 H       1  UNL1        0.0356
     23 H          -4.9617   -2.2231   -0.2406 H       1  UNL1        0.0575
     24 H          -4.8334    0.3891   -0.0816 H       1  UNL1        0.0621
     25 H           1.9683   -3.3333   -0.1076 H       1  UNL1        0.0836
     26 H           4.2419   -2.4118    0.0124 H       1  UNL1        0.0624
     27 H           5.7532   -0.4743    0.1710 H       1  UNL1        0.0618
     28 H           4.8077    1.8163    0.2800 H       1  UNL1        0.0618
     29 H           2.4125    2.1627    0.2318 H       1  UNL1        0.0624
     30 H           0.7142    3.2127    0.2456 H       1  UNL1        0.0813
     31 H          -1.4675    4.3584    0.2511 H       1  UNL1        0.1648
     32 H          -3.4738    2.8516    0.1038 H       1  UNL1        0.0813
@<TRIPOS>BOND
     1     1     2    1
     2     2     3    2
     3     3     4    1
     4     4     5   ar
     5     5     6   ar
     6     6     7   ar
     7     7     8   ar
     8     8     9   ar
     9     9    10   ar
    10    10    11   ar
    11    11    12   ar
    12    12    13   ar
    13    13    14   ar
    14    14    15   ar
    15    15    16   ar
    16    16    17   ar
    17    17    18   ar
    18    18    19   ar
    19    19    20   ar
    20     5     1    1
    21    15     6   ar
    22    20    16   ar
    23    20     4   ar
    24    14     9   ar
    25     1    21    1
    26     1    22    1
    27     2    23    1
    28     3    24    1
    29     8    25    1
    30    10    26    1
    31    11    27    1
    32    12    28    1
    33    13    29    1
    34    17    30    1
    35    18    31    1
    36    19    32    1
