@<TRIPOS>MOLECULE
*****
 46 52 0 0 0
SMALL
GASTEIGER

@<TRIPOS>ATOM
      1 C          -8.0117   -0.0839   -0.1635 C.3     1  UNL1        0.0000
      2 C          -7.1023   -1.2860   -0.4262 C.2     1  UNL1        0.0000
      3 C          -5.8076   -0.9881   -0.1727 C.2     1  UNL1        0.0000
      4 C          -5.7075    0.3627    0.2579 C.ar    1  UNL1        0.0000
      5 C          -7.0074    0.9239    0.2797 C.ar    1  UNL1        0.0000
      6 C          -7.0113    2.2228    0.7014 C.ar    1  UNL1        0.0000
      7 S          -5.4077    2.7384    1.0707 S.2     1  UNL1        0.0000
      8 C          -4.6946    1.2002    0.6493 C.ar    1  UNL1        0.0000
      9 C          -3.2971    1.0111    0.7353 C.2     1  UNL1        0.0000
     10 SI         -2.2431    0.4145   -0.7024 Si      1  UNL1        0.0000
     11 C          -0.7316    0.5535    0.4413 C.2     1  UNL1        0.0000
     12 C          -1.1164    0.9889    1.6618 C.2     1  UNL1        0.0000
     13 C          -2.5424    1.2437    1.8267 C.2     1  UNL1        0.0000
     14 C           0.5997    0.2764    0.0530 C.ar    1  UNL1        0.0000
     15 S           2.0142    0.9382    0.8335 S.2     1  UNL1        0.0000
     16 C           3.1383    0.1324   -0.2194 C.ar    1  UNL1        0.0000
     17 C           4.5631    0.3043   -0.0450 C.ar    1  UNL1        0.0000
     18 C           5.2393    1.5511   -0.0140 C.ar    1  UNL1        0.0000
     19 C           6.6658    1.6942    0.1414 C.ar    1  UNL1        0.0000
     20 C           7.5657    0.6121    0.2842 C.ar    1  UNL1        0.0000
     21 C           6.8775   -0.5931    0.2569 C.ar    1  UNL1        0.0000
     22 C           7.4108   -1.8475    0.3803 C.ar    1  UNL1        0.0000
     23 O           6.4069   -2.7757    0.3224 O.2     1  UNL1        0.0000
     24 C           5.2267   -2.0999    0.1634 C.ar    1  UNL1        0.0000
     25 C           5.4672   -0.7506    0.1019 C.ar    1  UNL1        0.0000
     26 C           2.4103   -0.5852   -1.1041 C.ar    1  UNL1        0.0000
     27 C           2.5904   -1.4344   -2.2101 C.ar    1  UNL1        0.0000
     28 C           1.2975   -1.7917   -2.6064 C.ar    1  UNL1        0.0000
     29 O           0.2952   -1.2295   -1.8398 O.2     1  UNL1        0.0000
     30 C           1.0450   -0.5077   -0.9572 C.ar    1  UNL1        0.0000
     31 H          -8.5226    0.2253   -1.0795 H       1  UNL1        0.0000
     32 H          -8.7368   -0.3093    0.6233 H       1  UNL1        0.0000
     33 H          -7.4654   -2.2456   -0.7626 H       1  UNL1        0.0000
     34 H          -4.9765   -1.6724   -0.2693 H       1  UNL1        0.0000
     35 H          -7.8465    2.8983    0.8207 H       1  UNL1        0.0000
     36 H          -2.1957    1.3900   -1.8242 H       1  UNL1        0.0000
     37 H          -2.5690   -0.9898   -1.0713 H       1  UNL1        0.0000
     38 H          -0.4497    1.1583    2.4993 H       1  UNL1        0.0000
     39 H          -2.9290    1.5954    2.7761 H       1  UNL1        0.0000
     40 H           4.6553    2.4666   -0.1226 H       1  UNL1        0.0000
     41 H           7.0738    2.7064    0.1485 H       1  UNL1        0.0000
     42 H           8.6329    0.7329    0.4030 H       1  UNL1        0.0000
     43 H           8.4064   -2.2460    0.5143 H       1  UNL1        0.0000
     44 H           4.3435   -2.7215    0.1202 H       1  UNL1        0.0000
     45 H           3.5115   -1.7570   -2.6746 H       1  UNL1        0.0000
     46 H           0.9346   -2.4264   -3.4046 H       1  UNL1        0.0000
@<TRIPOS>BOND
     1     1     2    1
     2     2     3    2
     3     3     4    1
     4     4     5   ar
     5     5     6   ar
     6     6     7   ar
     7     7     8   ar
     8     8     9    1
     9     9    10    1
    10    10    11    1
    11    11    12    2
    12    12    13    1
    13    11    14    1
    14    14    15   ar
    15    15    16   ar
    16    16    17    1
    17    17    18   ar
    18    18    19   ar
    19    19    20   ar
    20    20    21   ar
    21    21    22   ar
    22    22    23   ar
    23    23    24   ar
    24    24    25   ar
    25    16    26   ar
    26    26    27   ar
    27    27    28   ar
    28    28    29   ar
    29    29    30   ar
    30     5     1    1
    31    13     9    2
    32    30    14   ar
    33     8     4   ar
    34    25    17   ar
    35    30    26   ar
    36    25    21   ar
    37     1    31    1
    38     1    32    1
    39     2    33    1
    40     3    34    1
    41     6    35    1
    42    10    36    1
    43    10    37    1
    44    12    38    1
    45    13    39    1
    46    18    40    1
    47    19    41    1
    48    20    42    1
    49    22    43    1
    50    24    44    1
    51    27    45    1
    52    28    46    1
