@<TRIPOS>MOLECULE
*****
 46 52 0 0 0
SMALL
GASTEIGER

@<TRIPOS>ATOM
      1 C           6.3586    2.6477    0.5097 C.3     1  UNL1       -0.0081
      2 C           4.9599    3.0393    0.0288 C.2     1  UNL1       -0.0791
      3 C           4.1798    1.9501   -0.1577 C.2     1  UNL1       -0.0568
      4 C           4.9176    0.7779    0.1618 C.ar    1  UNL1       -0.0057
      5 C           6.2246    1.1643    0.5521 C.ar    1  UNL1       -0.0288
      6 C           7.0219    0.0957    0.8525 C.ar    1  UNL1       -0.0196
      7 S           6.1498   -1.3792    0.6449 S.2     1  UNL1       -0.0943
      8 C           4.6890   -0.5720    0.1693 C.ar    1  UNL1        0.0429
      9 C           3.4943   -1.3050   -0.1348 C.ar    1  UNL1        0.0542
     10 C           3.3251   -2.5753   -0.6503 C.ar    1  UNL1       -0.0353
     11 C           1.9318   -2.8194   -0.7564 C.ar    1  UNL1       -0.0353
     12 C           1.2676   -1.7009   -0.2922 C.ar    1  UNL1        0.0542
     13 N           2.2363   -0.7997    0.0875 N.ar    1  UNL1       -0.3533
     14 C          -0.1361   -1.4295   -0.1800 C.ar    1  UNL1        0.0453
     15 S          -0.7491    0.0691    0.4793 S.2     1  UNL1       -0.0841
     16 C          -2.4031   -0.3715    0.2601 C.ar    1  UNL1        0.0445
     17 C          -3.4955    0.4937    0.6193 C.ar    1  UNL1        0.0014
     18 C          -3.7928    0.9251    1.9358 C.ar    1  UNL1       -0.0528
     19 C          -4.9039    1.7806    2.2721 C.ar    1  UNL1       -0.0605
     20 C          -5.8289    2.2958    1.3326 C.ar    1  UNL1       -0.0510
     21 C          -5.5075    1.8637    0.0530 C.ar    1  UNL1        0.0205
     22 C          -6.1644    2.1653   -1.1092 C.ar    1  UNL1        0.0994
     23 O          -5.5311    1.5582   -2.1601 O.2     1  UNL1       -0.4698
     24 C          -4.4596    0.8699   -1.6573 C.ar    1  UNL1        0.1000
     25 C          -4.4129    1.0172   -0.2942 C.ar    1  UNL1        0.0281
     26 C          -2.4456   -1.6112   -0.2719 C.ar    1  UNL1        0.0621
     27 N          -3.5550   -2.3467   -0.5834 N.ar    1  UNL1       -0.3597
     28 C          -2.9800   -3.5080   -1.0902 C.ar    1  UNL1        0.0028
     29 C          -1.5709   -3.4435   -1.0629 C.ar    1  UNL1       -0.0355
     30 C          -1.2126   -2.1815   -0.5136 C.ar    1  UNL1        0.0165
     31 H           6.5621    3.0673    1.4987 H       1  UNL1        0.0356
     32 H           7.1199    2.9673   -0.2072 H       1  UNL1        0.0356
     33 H           4.6569    4.0603   -0.1504 H       1  UNL1        0.0575
     34 H           3.1618    1.9679   -0.5188 H       1  UNL1        0.0621
     35 H           8.0547    0.0828    1.1708 H       1  UNL1        0.0696
     36 H           4.1179   -3.2562   -0.9325 H       1  UNL1        0.0639
     37 H           1.4736   -3.7241   -1.1316 H       1  UNL1        0.0639
     38 H           2.0402    0.1022    0.4970 H       1  UNL1        0.1659
     39 H          -3.1518    0.5895    2.7528 H       1  UNL1        0.0624
     40 H          -5.0363    2.0466    3.3223 H       1  UNL1        0.0618
     41 H          -6.6560    2.9385    1.5981 H       1  UNL1        0.0625
     42 H          -7.0321    2.7558   -1.3669 H       1  UNL1        0.1035
     43 H          -3.8571    0.3513   -2.3906 H       1  UNL1        0.1036
     44 H          -4.5269   -2.0854   -0.4636 H       1  UNL1        0.1654
     45 H          -3.6258   -4.3058   -1.4347 H       1  UNL1        0.0807
     46 H          -0.9084   -4.2282   -1.4016 H       1  UNL1        0.0639
@<TRIPOS>BOND
     1     1     2    1
     2     2     3    2
     3     3     4    1
     4     4     5   ar
     5     5     6   ar
     6     6     7   ar
     7     7     8   ar
     8     8     9    1
     9     9    10   ar
    10    10    11   ar
    11    11    12   ar
    12    12    13   ar
    13    12    14    1
    14    14    15   ar
    15    15    16   ar
    16    16    17    1
    17    17    18   ar
    18    18    19   ar
    19    19    20   ar
    20    20    21   ar
    21    21    22   ar
    22    22    23   ar
    23    23    24   ar
    24    24    25   ar
    25    16    26   ar
    26    26    27   ar
    27    27    28   ar
    28    28    29   ar
    29    29    30   ar
    30     5     1    1
    31    13     9   ar
    32    30    14   ar
    33     8     4   ar
    34    25    17   ar
    35    30    26   ar
    36    25    21   ar
    37     1    31    1
    38     1    32    1
    39     2    33    1
    40     3    34    1
    41     6    35    1
    42    10    36    1
    43    11    37    1
    44    13    38    1
    45    18    39    1
    46    19    40    1
    47    20    41    1
    48    22    42    1
    49    24    43    1
    50    27    44    1
    51    28    45    1
    52    29    46    1
