@<TRIPOS>MOLECULE
*****
 46 52 0 0 0
SMALL
GASTEIGER

@<TRIPOS>ATOM
      1 C           7.7400   -0.2716   -1.3125 C.3     1  UNL1       -0.0081
      2 C           6.6899   -0.3465   -2.4270 C.2     1  UNL1       -0.0791
      3 C           5.4347   -0.3400   -1.9211 C.2     1  UNL1       -0.0568
      4 C           5.5009   -0.2637   -0.5049 C.ar    1  UNL1       -0.0070
      5 C           6.8586   -0.2220   -0.1093 C.ar    1  UNL1       -0.0289
      6 C           7.0058   -0.1480    1.2506 C.ar    1  UNL1       -0.0197
      7 S           5.4581   -0.1382    2.0239 S.2     1  UNL1       -0.0958
      8 C           4.6005   -0.2265    0.5219 C.ar    1  UNL1        0.0273
      9 C           3.1525   -0.2470    0.5141 C.ar    1  UNL1       -0.0025
     10 C           2.3852   -1.3667    0.9045 C.ar    1  UNL1       -0.0523
     11 C           0.9557   -1.3962    0.8677 C.ar    1  UNL1       -0.0514
     12 C           0.1355   -0.3124    0.4506 C.ar    1  UNL1        0.0086
     13 C          -1.3207   -0.3800    0.4453 C.ar    1  UNL1        0.0716
     14 C          -2.1180    0.5216    1.1482 C.ar    1  UNL1       -0.0351
     15 C          -3.5071    0.3860    1.0987 C.ar    1  UNL1       -0.0500
     16 C          -4.0844   -0.6500    0.3598 C.ar    1  UNL1        0.0075
     17 C          -3.2058   -1.5116   -0.2938 C.ar    1  UNL1        0.0365
     18 N          -1.8530   -1.4058   -0.2617 N.ar    1  UNL1       -0.2543
     19 C          -5.5357   -0.7970    0.2738 C.ar    1  UNL1        0.0316
     20 S          -6.2966   -2.3720    0.3520 S.2     1  UNL1       -0.0923
     21 C          -7.9017   -1.7402    0.1960 C.ar    1  UNL1        0.0192
     22 C          -7.8030   -0.4011    0.1044 C.ar    1  UNL1        0.1424
     23 O          -8.8339    0.4776   -0.0322 O.2     1  UNL1       -0.4624
     24 C          -8.1246    1.6651   -0.0712 C.ar    1  UNL1        0.0932
     25 C          -6.7360    1.5066    0.0259 C.ar    1  UNL1       -0.0150
     26 C          -6.5318    0.1160    0.1509 C.ar    1  UNL1        0.0349
     27 C           0.9085    0.7976    0.0452 C.ar    1  UNL1       -0.0011
     28 C           0.3891    1.9643   -0.4709 C.ar    1  UNL1       -0.0160
     29 S           1.6157    3.1053   -0.8500 S.2     1  UNL1       -0.1038
     30 C           2.8631    2.0340   -0.3608 C.ar    1  UNL1       -0.0160
     31 C           2.3608    0.8292    0.0765 C.ar    1  UNL1       -0.0020
     32 H           8.3740   -1.1638   -1.3170 H       1  UNL1        0.0356
     33 H           8.3466    0.6339   -1.4113 H       1  UNL1        0.0356
     34 H           6.9379   -0.4011   -3.4763 H       1  UNL1        0.0575
     35 H           4.5189   -0.3877   -2.4937 H       1  UNL1        0.0621
     36 H           7.9123   -0.1030    1.8388 H       1  UNL1        0.0696
     37 H           2.9015   -2.2662    1.2424 H       1  UNL1        0.0624
     38 H           0.4625   -2.3195    1.1816 H       1  UNL1        0.0624
     39 H          -1.6711    1.3160    1.7403 H       1  UNL1        0.0639
     40 H          -4.1257    1.0866    1.6559 H       1  UNL1        0.0625
     41 H          -3.5664   -2.3404   -0.8995 H       1  UNL1        0.0836
     42 H          -8.7906   -2.3530    0.1791 H       1  UNL1        0.0731
     43 H          -8.7487    2.5461   -0.1757 H       1  UNL1        0.1030
     44 H          -6.0055    2.3020    0.0036 H       1  UNL1        0.0655
     45 H          -0.6418    2.2289   -0.6581 H       1  UNL1        0.0700
     46 H           3.8939    2.3544   -0.4329 H       1  UNL1        0.0700
@<TRIPOS>BOND
     1     1     2    1
     2     2     3    2
     3     3     4    1
     4     4     5   ar
     5     5     6   ar
     6     6     7   ar
     7     7     8   ar
     8     8     9    1
     9     9    10   ar
    10    10    11   ar
    11    11    12   ar
    12    12    13    1
    13    13    14   ar
    14    14    15   ar
    15    15    16   ar
    16    16    17   ar
    17    17    18   ar
    18    16    19    1
    19    19    20   ar
    20    20    21   ar
    21    21    22   ar
    22    22    23   ar
    23    23    24   ar
    24    24    25   ar
    25    25    26   ar
    26    12    27   ar
    27    27    28   ar
    28    28    29   ar
    29    29    30   ar
    30    30    31   ar
    31     5     1    1
    32    31     9   ar
    33     8     4   ar
    34    18    13   ar
    35    26    19   ar
    36    31    27   ar
    37    26    22   ar
    38     1    32    1
    39     1    33    1
    40     2    34    1
    41     3    35    1
    42     6    36    1
    43    10    37    1
    44    11    38    1
    45    14    39    1
    46    15    40    1
    47    17    41    1
    48    21    42    1
    49    24    43    1
    50    25    44    1
    51    28    45    1
    52    30    46    1
