@<TRIPOS>MOLECULE
*****
 39 44 0 0 0
SMALL
GASTEIGER

@<TRIPOS>ATOM
      1 C          -7.0773   -0.1777    0.0439 C.3     1  UNL1       -0.0081
      2 C          -6.3325   -0.9823   -1.0237 C.2     1  UNL1       -0.0791
      3 C          -4.9926   -0.8584   -0.8876 C.2     1  UNL1       -0.0568
      4 C          -4.7064   -0.0095    0.2139 C.ar    1  UNL1       -0.0070
      5 C          -5.9295    0.4082    0.7928 C.ar    1  UNL1       -0.0289
      6 C          -5.7475    1.2262    1.8722 C.ar    1  UNL1       -0.0197
      7 S          -4.0631    1.4690    2.1622 S.2     1  UNL1       -0.0957
      8 C          -3.5804    0.4705    0.8250 C.ar    1  UNL1        0.0288
      9 C          -2.1647    0.2771    0.5366 C.ar    1  UNL1        0.0175
     10 C          -1.2348   -0.1468    1.5104 C.ar    1  UNL1       -0.0507
     11 C           0.1392   -0.3422    1.2404 C.ar    1  UNL1       -0.0508
     12 C           0.7174   -0.1357   -0.0306 C.ar    1  UNL1        0.0169
     13 C           2.1361   -0.3458   -0.3064 C.ar    1  UNL1        0.0220
     14 C           2.7307   -1.0666   -1.3226 C.ar    1  UNL1       -0.0463
     15 C           4.1554   -1.0407   -1.2520 C.ar    1  UNL1       -0.0458
     16 C           4.6266   -0.2898   -0.1898 C.ar    1  UNL1        0.0265
     17 S           3.3186    0.3746    0.7046 S.2     1  UNL1       -0.0877
     18 C           6.0019   -0.0514    0.1929 C.ar    1  UNL1        0.0259
     19 C           6.5097    1.0076    0.9281 C.ar    1  UNL1       -0.0464
     20 C           7.9172    0.9140    1.1391 C.ar    1  UNL1       -0.0541
     21 C           8.4496   -0.2143    0.5591 C.ar    1  UNL1       -0.0237
     22 S           7.2607   -1.1424   -0.2415 S.2     1  UNL1       -0.0961
     23 C          -0.1682    0.2908   -1.0636 C.ar    1  UNL1        0.1087
     24 N           0.1461    0.5482   -2.3471 N.ar    1  UNL1       -0.1901
     25 S          -1.2417    1.0429   -3.1001 S.2     1  UNL1        0.1165
     26 N          -2.3226    0.9353   -1.8539 N.ar    1  UNL1       -0.1901
     27 C          -1.6452    0.5095   -0.7708 C.ar    1  UNL1        0.1087
     28 H          -7.7002    0.5952   -0.4144 H       1  UNL1        0.0356
     29 H          -7.6824   -0.8360    0.6742 H       1  UNL1        0.0356
     30 H          -6.8281   -1.5611   -1.7873 H       1  UNL1        0.0575
     31 H          -4.2487   -1.3176   -1.5227 H       1  UNL1        0.0621
     32 H          -6.4884    1.6957    2.5046 H       1  UNL1        0.0696
     33 H          -1.5852   -0.3459    2.5247 H       1  UNL1        0.0625
     34 H           0.7716   -0.6793    2.0621 H       1  UNL1        0.0625
     35 H           2.1721   -1.5958   -2.0864 H       1  UNL1        0.0629
     36 H           4.7973   -1.5483   -1.9629 H       1  UNL1        0.0629
     37 H           5.9026    1.8244    1.3010 H       1  UNL1        0.0629
     38 H           8.5052    1.6376    1.6904 H       1  UNL1        0.0623
     39 H           9.4815   -0.5387    0.5627 H       1  UNL1        0.0693
@<TRIPOS>BOND
     1     1     2    1
     2     2     3    2
     3     3     4    1
     4     4     5   ar
     5     5     6   ar
     6     6     7   ar
     7     7     8   ar
     8     8     9    1
     9     9    10   ar
    10    10    11   ar
    11    11    12   ar
    12    12    13    1
    13    13    14   ar
    14    14    15   ar
    15    15    16   ar
    16    16    17   ar
    17    16    18    1
    18    18    19   ar
    19    19    20   ar
    20    20    21   ar
    21    21    22   ar
    22    12    23   ar
    23    23    24   ar
    24    24    25   ar
    25    25    26   ar
    26    26    27   ar
    27     5     1    1
    28    27     9   ar
    29     8     4   ar
    30    17    13   ar
    31    22    18   ar
    32    27    23   ar
    33     1    28    1
    34     1    29    1
    35     2    30    1
    36     3    31    1
    37     6    32    1
    38    10    33    1
    39    11    34    1
    40    14    35    1
    41    15    36    1
    42    19    37    1
    43    20    38    1
    44    21    39    1
