@<TRIPOS>MOLECULE
*****
 44 50 0 0 0
SMALL
GASTEIGER

@<TRIPOS>ATOM
      1 C          -7.6632    0.9560    0.0245 C.3     1  UNL1       -0.0081
      2 C          -6.7512    1.9222   -0.7389 C.2     1  UNL1       -0.0791
      3 C          -5.4498    1.5753   -0.6121 C.2     1  UNL1       -0.0568
      4 C          -5.3516    0.4148    0.1981 C.ar    1  UNL1       -0.0070
      5 C          -6.6517    0.0202    0.5930 C.ar    1  UNL1       -0.0289
      6 C          -6.6422   -1.0970    1.3815 C.ar    1  UNL1       -0.0197
      7 S          -5.0203   -1.6428    1.6309 S.2     1  UNL1       -0.0958
      8 C          -4.3414   -0.3800    0.6592 C.ar    1  UNL1        0.0274
      9 C          -2.9097   -0.2759    0.4863 C.ar    1  UNL1        0.0000
     10 C          -2.1200    0.7805    1.0016 C.ar    1  UNL1       -0.0522
     11 C          -0.6965    0.8863    0.8126 C.ar    1  UNL1       -0.0522
     12 C           0.0819   -0.0476    0.0803 C.ar    1  UNL1       -0.0005
     13 C           1.5133    0.0524   -0.1427 C.ar    1  UNL1        0.0206
     14 C           2.2144    0.0234   -1.3299 C.ar    1  UNL1       -0.0463
     15 C           3.6219    0.1446   -1.1338 C.ar    1  UNL1       -0.0457
     16 C           3.9758    0.2679    0.1984 C.ar    1  UNL1        0.0300
     17 S           2.5706    0.2357    1.1892 S.2     1  UNL1       -0.0876
     18 C           5.3016    0.4039    0.7465 C.ar    1  UNL1        0.0687
     19 S           5.6721    0.9336    2.3666 S.2     1  UNL1       -0.0918
     20 C           7.3911    0.8094    2.1474 C.ar    1  UNL1       -0.0128
     21 C           7.6088    0.3828    0.8872 C.ar    1  UNL1        0.0278
     22 C           8.6734    0.0627    0.0321 C.ar    1  UNL1       -0.0156
     23 C           8.0657   -0.3226   -1.1687 C.ar    1  UNL1        0.0932
     24 O           6.6844   -0.2722   -1.1477 O.2     1  UNL1       -0.4618
     25 C           6.4824    0.1646    0.1295 C.ar    1  UNL1        0.1500
     26 C          -0.7172   -1.0768   -0.4291 C.ar    1  UNL1        0.0286
     27 C          -0.3455   -2.1697   -1.1702 C.ar    1  UNL1        0.1000
     28 O          -1.4462   -2.9237   -1.4701 O.2     1  UNL1       -0.4698
     29 C          -2.5308   -2.3160   -0.9008 C.ar    1  UNL1        0.1000
     30 C          -2.1323   -1.1849   -0.2356 C.ar    1  UNL1        0.0287
     31 H          -8.2176    1.4812    0.8071 H       1  UNL1        0.0356
     32 H          -8.3497    0.4480   -0.6583 H       1  UNL1        0.0356
     33 H          -7.1183    2.7658   -1.3042 H       1  UNL1        0.0575
     34 H          -4.6096    2.0901   -1.0567 H       1  UNL1        0.0621
     35 H          -7.4729   -1.6236    1.8297 H       1  UNL1        0.0696
     36 H          -2.6111    1.5620    1.5835 H       1  UNL1        0.0624
     37 H          -0.1974    1.7487    1.2577 H       1  UNL1        0.0624
     38 H           1.7445   -0.0735   -2.3016 H       1  UNL1        0.0629
     39 H           4.3366    0.1456   -1.9481 H       1  UNL1        0.0629
     40 H           8.0820    1.0522    2.9420 H       1  UNL1        0.0701
     41 H           9.7358    0.0932    0.2265 H       1  UNL1        0.0655
     42 H           8.4765   -0.6546   -2.1134 H       1  UNL1        0.1030
     43 H           0.5908   -2.5492   -1.5545 H       1  UNL1        0.1036
     44 H          -3.4773   -2.8131   -1.0608 H       1  UNL1        0.1036
@<TRIPOS>BOND
     1     1     2    1
     2     2     3    2
     3     3     4    1
     4     4     5   ar
     5     5     6   ar
     6     6     7   ar
     7     7     8   ar
     8     8     9    1
     9     9    10   ar
    10    10    11   ar
    11    11    12   ar
    12    12    13    1
    13    13    14   ar
    14    14    15   ar
    15    15    16   ar
    16    16    17   ar
    17    16    18    1
    18    18    19   ar
    19    19    20   ar
    20    20    21   ar
    21    21    22   ar
    22    22    23   ar
    23    23    24   ar
    24    24    25   ar
    25    12    26   ar
    26    26    27   ar
    27    27    28   ar
    28    28    29   ar
    29    29    30   ar
    30     5     1    1
    31    30     9   ar
    32     8     4   ar
    33    17    13   ar
    34    25    18   ar
    35    30    26   ar
    36    25    21   ar
    37     1    31    1
    38     1    32    1
    39     2    33    1
    40     3    34    1
    41     6    35    1
    42    10    36    1
    43    11    37    1
    44    14    38    1
    45    15    39    1
    46    20    40    1
    47    22    41    1
    48    23    42    1
    49    27    43    1
    50    29    44    1
