@<TRIPOS>MOLECULE
*****
 43 49 0 0 0
SMALL
GASTEIGER

@<TRIPOS>ATOM
      1 C          -7.0859    0.9771   -0.9556 C.3     1  UNL1       -0.0081
      2 C          -5.9610    1.2056   -1.9705 C.2     1  UNL1       -0.0791
      3 C          -4.7588    0.8513   -1.4615 C.2     1  UNL1       -0.0568
      4 C          -4.9327    0.3791   -0.1347 C.ar    1  UNL1       -0.0070
      5 C          -6.3072    0.4385    0.1956 C.ar    1  UNL1       -0.0289
      6 C          -6.5605   -0.0094    1.4625 C.ar    1  UNL1       -0.0197
      7 S          -5.0920   -0.5031    2.2306 S.2     1  UNL1       -0.0958
      8 C          -4.1209   -0.1013    0.8537 C.ar    1  UNL1        0.0273
      9 C          -2.6856   -0.3023    0.8950 C.ar    1  UNL1       -0.0025
     10 C          -2.0778   -1.5760    0.9929 C.ar    1  UNL1       -0.0523
     11 C          -0.6634   -1.7811    1.0099 C.ar    1  UNL1       -0.0508
     12 C           0.2873   -0.7356    0.9183 C.ar    1  UNL1        0.0154
     13 C           1.7181   -0.9842    0.9263 C.ar    1  UNL1        0.1094
     14 N           2.3662   -1.5699    1.9101 N.ar    1  UNL1       -0.2467
     15 C           3.7026   -1.6927    1.5777 C.ar    1  UNL1        0.0437
     16 C           4.0699   -1.2180    0.3309 C.ar    1  UNL1        0.0465
     17 S           2.6682   -0.6176   -0.4592 S.2     1  UNL1       -0.0667
     18 C           5.3712   -1.2283   -0.2811 C.ar    1  UNL1        0.0356
     19 S           6.5042   -2.5009    0.0382 S.2     1  UNL1       -0.0944
     20 C           7.7056   -1.8450   -1.0015 C.ar    1  UNL1       -0.0094
     21 C           7.2621   -0.6849   -1.5654 C.ar    1  UNL1        0.0269
     22 S           8.0743    0.4421   -2.7120 S.2     1  UNL1       -0.0961
     23 C           6.5961    1.3815   -2.5951 C.ar    1  UNL1       -0.0231
     24 C           5.5972    0.8647   -1.7616 C.ar    1  UNL1       -0.0459
     25 C           5.9672   -0.3671   -1.1486 C.ar    1  UNL1        0.0045
     26 C          -0.3091    0.5383    0.8501 C.ar    1  UNL1       -0.0006
     27 C           0.3783    1.7309    0.8326 C.ar    1  UNL1       -0.0159
     28 S          -0.6797    3.0811    0.7557 S.2     1  UNL1       -0.1038
     29 C          -2.0745    2.0824    0.7869 C.ar    1  UNL1       -0.0160
     30 C          -1.7478    0.7461    0.8347 C.ar    1  UNL1       -0.0020
     31 H          -7.5821    1.9191   -0.7067 H       1  UNL1        0.0356
     32 H          -7.8092    0.2497   -1.3342 H       1  UNL1        0.0356
     33 H          -6.1254    1.5980   -2.9630 H       1  UNL1        0.0575
     34 H          -3.8094    0.9121   -1.9752 H       1  UNL1        0.0621
     35 H          -7.5039   -0.0826    1.9851 H       1  UNL1        0.0696
     36 H          -2.7172   -2.4579    1.0553 H       1  UNL1        0.0624
     37 H          -0.3001   -2.8070    1.0950 H       1  UNL1        0.0625
     38 H           4.3746   -2.1433    2.2990 H       1  UNL1        0.0841
     39 H           8.6661   -2.3184   -1.1524 H       1  UNL1        0.0705
     40 H           6.5488    2.2980   -3.1678 H       1  UNL1        0.0694
     41 H           4.6548    1.3781   -1.6183 H       1  UNL1        0.0629
     42 H           1.4440    1.9089    0.8678 H       1  UNL1        0.0700
     43 H          -3.0527    2.5441    0.7786 H       1  UNL1        0.0700
@<TRIPOS>BOND
     1     1     2    1
     2     2     3    2
     3     3     4    1
     4     4     5   ar
     5     5     6   ar
     6     6     7   ar
     7     7     8   ar
     8     8     9    1
     9     9    10   ar
    10    10    11   ar
    11    11    12   ar
    12    12    13    1
    13    13    14   ar
    14    14    15   ar
    15    15    16   ar
    16    16    17   ar
    17    16    18    1
    18    18    19   ar
    19    19    20   ar
    20    20    21   ar
    21    21    22   ar
    22    22    23   ar
    23    23    24   ar
    24    24    25   ar
    25    12    26   ar
    26    26    27   ar
    27    27    28   ar
    28    28    29   ar
    29    29    30   ar
    30     5     1    1
    31    30     9   ar
    32     8     4   ar
    33    17    13   ar
    34    25    18   ar
    35    30    26   ar
    36    25    21   ar
    37     1    31    1
    38     1    32    1
    39     2    33    1
    40     3    34    1
    41     6    35    1
    42    10    36    1
    43    11    37    1
    44    15    38    1
    45    20    39    1
    46    23    40    1
    47    24    41    1
    48    27    42    1
    49    29    43    1
