@<TRIPOS>MOLECULE
*****
 47 53 0 0 0
SMALL
GASTEIGER

@<TRIPOS>ATOM
      1 C           7.1360    0.1461   -1.4477 C.3     1  UNL1        0.0000
      2 C           6.2031   -0.9399   -1.9933 C.2     1  UNL1        0.0000
      3 C           4.9369   -0.7694   -1.5487 C.2     1  UNL1        0.0000
      4 C           4.8843    0.3753   -0.7115 C.ar    1  UNL1        0.0000
      5 C           6.1776    0.9421   -0.6295 C.ar    1  UNL1        0.0000
      6 C           6.2114    2.0525    0.1668 C.ar    1  UNL1        0.0000
      7 S           4.6403    2.3828    0.8074 S.2     1  UNL1        0.0000
      8 C           3.9124    1.0217    0.0027 C.ar    1  UNL1        0.0000
      9 C           2.5211    0.7427    0.1534 C.ar    1  UNL1        0.0000
     10 C           1.6964    1.1505   -0.8386 C.ar    1  UNL1        0.0000
     11 C           0.2529    0.9228   -0.8210 C.ar    1  UNL1        0.0000
     12 C          -0.3875    0.2907    0.1912 C.ar    1  UNL1        0.0000
     13 C          -1.7980    0.1029    0.0723 C.ar    1  UNL1        0.0000
     14 S          -2.9150    1.4510    0.0566 S.2     1  UNL1        0.0000
     15 C          -4.3293    0.4497   -0.0760 C.ar    1  UNL1        0.0000
     16 C          -5.6871    0.9753   -0.1456 C.ar    1  UNL1        0.0000
     17 N          -5.8386    2.3009   -0.1168 N.ar    1  UNL1        0.0000
     18 C          -7.1004    2.7113   -0.1834 C.ar    1  UNL1        0.0000
     19 N          -8.1731    1.9292   -0.2739 N.ar    1  UNL1        0.0000
     20 C          -7.8946    0.6287   -0.2947 C.ar    1  UNL1        0.0000
     21 N          -6.6821    0.0832   -0.2348 N.ar    1  UNL1        0.0000
     22 C          -3.9156   -0.8385   -0.0951 C.ar    1  UNL1        0.0000
     23 N          -4.6873   -1.9637   -0.1838 N.ar    1  UNL1        0.0000
     24 C          -3.7229   -2.9664   -0.1559 C.ar    1  UNL1        0.0000
     25 C          -2.4219   -2.4304   -0.0546 C.ar    1  UNL1        0.0000
     26 C          -2.5529   -1.0178   -0.0133 C.ar    1  UNL1        0.0000
     27 C           0.4402   -0.1869    1.3067 C.ar    1  UNL1        0.0000
     28 C          -0.0061   -0.8291    2.4066 C.2     1  UNL1        0.0000
     29 SI          1.3949   -1.2545    3.5623 Si      1  UNL1        0.0000
     30 C           2.5675   -0.4505    2.3570 C.2     1  UNL1        0.0000
     31 C           1.9105    0.0380    1.2845 C.ar    1  UNL1        0.0000
     32 H           7.5640    0.7363   -2.2627 H       1  UNL1        0.0000
     33 H           7.9275   -0.2936   -0.8347 H       1  UNL1        0.0000
     34 H           6.5313   -1.7343   -2.6467 H       1  UNL1        0.0000
     35 H           4.0897   -1.3988   -1.7832 H       1  UNL1        0.0000
     36 H           7.0489    2.6887    0.4156 H       1  UNL1        0.0000
     37 H           2.0835    1.6770   -1.7080 H       1  UNL1        0.0000
     38 H          -0.2893    1.2871   -1.6906 H       1  UNL1        0.0000
     39 H          -7.2711    3.7824   -0.1622 H       1  UNL1        0.0000
     40 H          -8.7376   -0.0505   -0.3675 H       1  UNL1        0.0000
     41 H          -5.6997   -2.0010   -0.2503 H       1  UNL1        0.0000
     42 H          -4.0394   -4.0000   -0.2125 H       1  UNL1        0.0000
     43 H          -1.5064   -3.0063   -0.0170 H       1  UNL1        0.0000
     44 H          -1.0247   -1.0913    2.6452 H       1  UNL1        0.0000
     45 H           1.6111   -2.7176    3.6723 H       1  UNL1        0.0000
     46 H           1.3113   -0.5253    4.8508 H       1  UNL1        0.0000
     47 H           3.6275   -0.4032    2.5510 H       1  UNL1        0.0000
@<TRIPOS>BOND
     1     1     2    1
     2     2     3    2
     3     3     4    1
     4     4     5   ar
     5     5     6   ar
     6     6     7   ar
     7     7     8   ar
     8     8     9    1
     9     9    10   ar
    10    10    11   ar
    11    11    12   ar
    12    12    13    1
    13    13    14   ar
    14    14    15   ar
    15    15    16    1
    16    16    17   ar
    17    17    18   ar
    18    18    19   ar
    19    19    20   ar
    20    20    21   ar
    21    15    22   ar
    22    22    23   ar
    23    23    24   ar
    24    24    25   ar
    25    25    26   ar
    26    12    27   ar
    27    27    28    2
    28    28    29    1
    29    29    30    1
    30    30    31    2
    31     5     1    1
    32    31     9   ar
    33     8     4   ar
    34    26    13   ar
    35    31    27   ar
    36    21    16   ar
    37    26    22   ar
    38     1    32    1
    39     1    33    1
    40     2    34    1
    41     3    35    1
    42     6    36    1
    43    10    37    1
    44    11    38    1
    45    18    39    1
    46    20    40    1
    47    23    41    1
    48    24    42    1
    49    25    43    1
    50    28    44    1
    51    29    45    1
    52    29    46    1
    53    30    47    1
