@<TRIPOS>MOLECULE
*****
 48 55 0 0 0
SMALL
GASTEIGER

@<TRIPOS>ATOM
      1 SI         -3.3066   -1.2256   -3.4231 Si      1  UNL1        0.0000
      2 C          -4.5539   -0.8697   -2.0805 C.2     1  UNL1        0.0000
      3 C          -3.9487   -0.5325   -0.9213 C.ar    1  UNL1        0.0000
      4 C          -4.6311   -0.4201    0.3779 C.ar    1  UNL1        0.0000
      5 C          -6.0216   -0.3889    0.5321 C.ar    1  UNL1        0.0000
      6 C          -6.5769   -0.3428    1.8066 C.ar    1  UNL1        0.0000
      7 C          -5.7217   -0.3323    2.8915 C.ar    1  UNL1        0.0000
      8 N          -4.3765   -0.3517    2.7863 N.ar    1  UNL1        0.0000
      9 C          -3.8341   -0.3886    1.5354 C.ar    1  UNL1        0.0000
     10 C          -2.3464   -0.3146    1.4659 C.ar    1  UNL1        0.0000
     11 C          -1.5772   -0.3720    2.6389 C.ar    1  UNL1        0.0000
     12 C          -0.1902   -0.2207    2.6181 C.ar    1  UNL1        0.0000
     13 C           0.4880    0.1131    1.4467 C.ar    1  UNL1        0.0000
     14 C           1.9058    0.3175    1.5399 C.ar    1  UNL1        0.0000
     15 C           2.7310    0.7475    0.4826 C.ar    1  UNL1        0.0000
     16 C           4.1573    0.9254    0.6013 C.ar    1  UNL1        0.0000
     17 S           4.8781    2.1272    1.6177 S.2     1  UNL1        0.0000
     18 C           6.5023    1.6754    1.1810 C.ar    1  UNL1        0.0000
     19 C           6.4188    0.6471    0.3124 C.ar    1  UNL1        0.0000
     20 C           7.2314   -0.2285   -0.4482 C.ar    1  UNL1        0.0000
     21 C           6.3634   -1.0936   -1.1497 C.ar    1  UNL1        0.0000
     22 N           5.0256   -0.8155   -0.8743 N.ar    1  UNL1        0.0000
     23 C           5.1449    0.2310   -0.0043 C.ar    1  UNL1        0.0000
     24 C           1.9928    1.0402   -0.6689 C.ar    1  UNL1        0.0000
     25 C           2.5383    1.6146   -1.7961 C.ar    1  UNL1        0.0000
     26 S           1.3414    1.9804   -2.9639 S.2     1  UNL1        0.0000
     27 C           0.0876    1.3975   -1.9498 C.ar    1  UNL1        0.0000
     28 C           0.5622    0.8208   -0.7919 C.ar    1  UNL1        0.0000
     29 C          -0.2755    0.2499    0.2338 C.ar    1  UNL1        0.0000
     30 C          -1.6689   -0.1331    0.2298 C.ar    1  UNL1        0.0000
     31 C          -2.4706   -0.4543   -0.9868 C.ar    1  UNL1        0.0000
     32 C          -1.9705   -0.8940   -2.1624 C.2     1  UNL1        0.0000
     33 H          -3.3319   -0.2080   -4.5006 H       1  UNL1        0.0000
     34 H          -3.3379   -2.6407   -3.8630 H       1  UNL1        0.0000
     35 H          -5.6015   -1.0467   -2.2599 H       1  UNL1        0.0000
     36 H          -6.6832   -0.4021   -0.3281 H       1  UNL1        0.0000
     37 H          -7.6515   -0.3203    1.9481 H       1  UNL1        0.0000
     38 H          -6.1056   -0.3014    3.9073 H       1  UNL1        0.0000
     39 H          -2.0630   -0.5479    3.5983 H       1  UNL1        0.0000
     40 H           0.3436   -0.3112    3.5632 H       1  UNL1        0.0000
     41 H           2.3898    0.1362    2.5029 H       1  UNL1        0.0000
     42 H           7.3615    2.1857    1.5912 H       1  UNL1        0.0000
     43 H           8.3120   -0.2527   -0.4978 H       1  UNL1        0.0000
     44 H           6.5994   -1.8999   -1.8326 H       1  UNL1        0.0000
     45 H           4.1737   -1.2497   -1.2098 H       1  UNL1        0.0000
     46 H           3.5668    1.8859   -1.9944 H       1  UNL1        0.0000
     47 H          -0.9324    1.5278   -2.2792 H       1  UNL1        0.0000
     48 H          -0.9383   -1.0639   -2.4225 H       1  UNL1        0.0000
@<TRIPOS>BOND
     1     1     2    1
     2     2     3    2
     3     3     4   ar
     4     4     5   ar
     5     5     6   ar
     6     6     7   ar
     7     7     8   ar
     8     8     9   ar
     9     9    10   ar
    10    10    11   ar
    11    11    12   ar
    12    12    13   ar
    13    13    14   ar
    14    14    15   ar
    15    15    16    1
    16    16    17   ar
    17    17    18   ar
    18    18    19   ar
    19    19    20   ar
    20    20    21   ar
    21    21    22   ar
    22    22    23   ar
    23    15    24   ar
    24    24    25   ar
    25    25    26   ar
    26    26    27   ar
    27    27    28   ar
    28    28    29   ar
    29    29    30   ar
    30    30    31   ar
    31    31    32    2
    32    32     1    1
    33    31     3   ar
    34     9     4   ar
    35    30    10   ar
    36    29    13   ar
    37    23    16   ar
    38    28    24   ar
    39    23    19   ar
    40     1    33    1
    41     1    34    1
    42     2    35    1
    43     5    36    1
    44     6    37    1
    45     7    38    1
    46    11    39    1
    47    12    40    1
    48    14    41    1
    49    18    42    1
    50    20    43    1
    51    21    44    1
    52    22    45    1
    53    25    46    1
    54    27    47    1
    55    32    48    1
