@<TRIPOS>MOLECULE
*****
 49 55 0 0 0
SMALL
GASTEIGER

@<TRIPOS>ATOM
      1 C           8.5011   -0.0485   -0.2430 C.3     1  UNL1        0.0000
      2 C           7.7289   -1.0364    0.6363 C.2     1  UNL1        0.0000
      3 C           6.3929   -0.8682    0.5090 C.2     1  UNL1        0.0000
      4 C           6.1359    0.1814   -0.4121 C.ar    1  UNL1        0.0000
      5 C           7.3724    0.6927   -0.8738 C.ar    1  UNL1        0.0000
      6 C           7.2158    1.7200   -1.7616 C.ar    1  UNL1        0.0000
      7 S           5.5381    2.0416   -2.0185 S.2     1  UNL1        0.0000
      8 C           5.0251    0.7929   -0.9260 C.ar    1  UNL1        0.0000
      9 C           3.6007    0.5314   -0.7118 C.ar    1  UNL1        0.0000
     10 C           3.0998   -0.7716   -0.8266 C.ar    1  UNL1        0.0000
     11 C           1.7427   -1.0382   -0.6134 C.ar    1  UNL1        0.0000
     12 C           0.8556   -0.0069   -0.2809 C.ar    1  UNL1        0.0000
     13 C           1.3554    1.2962   -0.1638 C.ar    1  UNL1        0.0000
     14 C           2.7133    1.5620   -0.3765 C.ar    1  UNL1        0.0000
     15 C          -0.5576   -0.2996   -0.0499 C.ar    1  UNL1        0.0000
     16 S          -1.7904    0.5510   -0.9105 S.2     1  UNL1        0.0000
     17 C          -3.0702   -0.3268   -0.1609 C.ar    1  UNL1        0.0000
     18 C          -4.4485   -0.0962   -0.4248 C.ar    1  UNL1        0.0000
     19 C          -4.9493   -0.5610   -1.5962 C.ar    1  UNL1        0.0000
     20 C          -6.3500   -0.4037   -1.9848 C.ar    1  UNL1        0.0000
     21 C          -7.2461    0.2158   -1.1952 C.ar    1  UNL1        0.0000
     22 C          -6.8026    0.7463    0.0768 C.ar    1  UNL1        0.0000
     23 C          -7.5845    1.3913    0.9623 C.2     1  UNL1        0.0000
     24 SI         -6.5925    1.9121    2.4611 Si      1  UNL1        0.0000
     25 C          -5.0823    1.1420    1.6731 C.2     1  UNL1        0.0000
     26 C          -5.3813    0.5967    0.4758 C.ar    1  UNL1        0.0000
     27 C          -2.5679   -1.2428    0.7244 C.ar    1  UNL1        0.0000
     28 S          -3.3732   -2.4475    1.8075 S.2     1  UNL1        0.0000
     29 C          -1.7423   -2.8675    2.3079 C.ar    1  UNL1        0.0000
     30 C          -0.7037   -2.1556    1.6985 C.ar    1  UNL1        0.0000
     31 C          -1.1725   -1.2003    0.7577 C.ar    1  UNL1        0.0000
     32 H           9.1058   -0.5780   -0.9844 H       1  UNL1        0.0000
     33 H           9.1283    0.6072    0.3671 H       1  UNL1        0.0000
     34 H           8.2067   -1.7635    1.2754 H       1  UNL1        0.0000
     35 H           5.6321   -1.4330    1.0289 H       1  UNL1        0.0000
     36 H           7.9702    2.3002   -2.2740 H       1  UNL1        0.0000
     37 H           3.7613   -1.5911   -1.0994 H       1  UNL1        0.0000
     38 H           1.3829   -2.0587   -0.7255 H       1  UNL1        0.0000
     39 H           0.6959    2.1191    0.1038 H       1  UNL1        0.0000
     40 H           3.0710    2.5837   -0.2669 H       1  UNL1        0.0000
     41 H          -4.3185   -1.0879   -2.3084 H       1  UNL1        0.0000
     42 H          -6.6498   -0.8119   -2.9451 H       1  UNL1        0.0000
     43 H          -8.2829    0.3257   -1.4918 H       1  UNL1        0.0000
     44 H          -8.6365    1.6097    0.8741 H       1  UNL1        0.0000
     45 H          -6.4826    3.3862    2.5789 H       1  UNL1        0.0000
     46 H          -7.0176    1.2040    3.6924 H       1  UNL1        0.0000
     47 H          -4.1237    1.1605    2.1659 H       1  UNL1        0.0000
     48 H          -1.6428   -3.6444    3.0538 H       1  UNL1        0.0000
     49 H           0.3377   -2.3303    1.9400 H       1  UNL1        0.0000
@<TRIPOS>BOND
     1     1     2    1
     2     2     3    2
     3     3     4    1
     4     4     5   ar
     5     5     6   ar
     6     6     7   ar
     7     7     8   ar
     8     8     9    1
     9     9    10   ar
    10    10    11   ar
    11    11    12   ar
    12    12    13   ar
    13    13    14   ar
    14    12    15    1
    15    15    16   ar
    16    16    17   ar
    17    17    18    1
    18    18    19   ar
    19    19    20   ar
    20    20    21   ar
    21    21    22   ar
    22    22    23    2
    23    23    24    1
    24    24    25    1
    25    25    26    2
    26    17    27   ar
    27    27    28   ar
    28    28    29   ar
    29    29    30   ar
    30    30    31   ar
    31     5     1    1
    32    14     9   ar
    33    31    15   ar
    34     8     4   ar
    35    26    18   ar
    36    31    27   ar
    37    26    22   ar
    38     1    32    1
    39     1    33    1
    40     2    34    1
    41     3    35    1
    42     6    36    1
    43    10    37    1
    44    11    38    1
    45    13    39    1
    46    14    40    1
    47    19    41    1
    48    20    42    1
    49    21    43    1
    50    23    44    1
    51    24    45    1
    52    24    46    1
    53    25    47    1
    54    29    48    1
    55    30    49    1
