@<TRIPOS>MOLECULE
*****
 43 49 0 0 0
SMALL
GASTEIGER

@<TRIPOS>ATOM
      1 C           7.7913    0.8381   -0.3092 C.3     1  UNL1       -0.0081
      2 C           6.7725    1.9539   -0.5576 C.2     1  UNL1       -0.0791
      3 C           5.5098    1.5301   -0.3215 C.2     1  UNL1       -0.0568
      4 C           5.5382    0.1694    0.0837 C.ar    1  UNL1       -0.0070
      5 C           6.8839   -0.2693    0.1060 C.ar    1  UNL1       -0.0289
      6 C           7.0042   -1.5728    0.4994 C.ar    1  UNL1       -0.0197
      7 S           5.4489   -2.2433    0.8380 S.2     1  UNL1       -0.0957
      8 C           4.6146   -0.7706    0.4518 C.ar    1  UNL1        0.0282
      9 C           3.1572   -0.7022    0.5258 C.ar    1  UNL1        0.0074
     10 C           2.4464   -1.1349    1.6474 C.ar    1  UNL1       -0.0500
     11 C           1.0543   -1.0340    1.6729 C.ar    1  UNL1       -0.0346
     12 C           0.3992   -0.4994    0.5684 C.ar    1  UNL1        0.0787
     13 N           1.0588   -0.0631   -0.5299 N.ar    1  UNL1       -0.2538
     14 C           2.4099   -0.1788   -0.5258 C.ar    1  UNL1        0.0365
     15 C          -1.0458   -0.3552    0.5177 C.ar    1  UNL1        0.0524
     16 S          -1.8030    1.1417    0.1371 S.2     1  UNL1       -0.0843
     17 C          -3.4012    0.5044    0.2989 C.ar    1  UNL1        0.0383
     18 C          -4.5645    1.3106    0.0906 C.ar    1  UNL1        0.0693
     19 S          -4.7593    2.9356    0.6799 S.2     1  UNL1       -0.0918
     20 C          -6.3601    3.1072    0.0197 C.ar    1  UNL1       -0.0128
     21 C          -6.6668    1.9532   -0.6078 C.ar    1  UNL1        0.0278
     22 C          -7.7116    1.3711   -1.3414 C.ar    1  UNL1       -0.0156
     23 C          -7.2487    0.0914   -1.6729 C.ar    1  UNL1        0.0932
     24 O          -5.9800   -0.1931   -1.2025 O.2     1  UNL1       -0.4618
     25 C          -5.6964    0.9803   -0.5680 C.ar    1  UNL1        0.1500
     26 C          -3.2811   -0.8085    0.6269 C.ar    1  UNL1        0.0052
     27 C          -4.2118   -1.8471    0.9081 C.ar    1  UNL1       -0.0458
     28 C          -3.5951   -3.0664    1.2050 C.ar    1  UNL1       -0.0231
     29 S          -1.8416   -3.0753    1.1838 S.2     1  UNL1       -0.0954
     30 C          -1.9859   -1.3205    0.7559 C.ar    1  UNL1        0.0362
     31 H           8.4859    1.1161    0.4882 H       1  UNL1        0.0356
     32 H           8.3354    0.5969   -1.2263 H       1  UNL1        0.0356
     33 H           7.0454    2.9496   -0.8744 H       1  UNL1        0.0575
     34 H           4.6159    2.1314   -0.4154 H       1  UNL1        0.0621
     35 H           7.8967   -2.1724    0.6103 H       1  UNL1        0.0696
     36 H           2.9648   -1.5418    2.5122 H       1  UNL1        0.0625
     37 H           0.5040   -1.3598    2.5495 H       1  UNL1        0.0639
     38 H           2.8890    0.1699   -1.4374 H       1  UNL1        0.0836
     39 H          -6.9259    4.0198    0.1402 H       1  UNL1        0.0701
     40 H          -8.6695    1.7909   -1.6125 H       1  UNL1        0.0655
     41 H          -7.6986   -0.7185   -2.2326 H       1  UNL1        0.1030
     42 H          -5.2893   -1.7362    0.8928 H       1  UNL1        0.0629
     43 H          -4.0904   -3.9983    1.4420 H       1  UNL1        0.0694
@<TRIPOS>BOND
     1     1     2    1
     2     2     3    2
     3     3     4    1
     4     4     5   ar
     5     5     6   ar
     6     6     7   ar
     7     7     8   ar
     8     8     9    1
     9     9    10   ar
    10    10    11   ar
    11    11    12   ar
    12    12    13   ar
    13    13    14   ar
    14    12    15    1
    15    15    16   ar
    16    16    17   ar
    17    17    18    1
    18    18    19   ar
    19    19    20   ar
    20    20    21   ar
    21    21    22   ar
    22    22    23   ar
    23    23    24   ar
    24    24    25   ar
    25    17    26   ar
    26    26    27   ar
    27    27    28   ar
    28    28    29   ar
    29    29    30   ar
    30     5     1    1
    31    14     9   ar
    32    30    15   ar
    33     8     4   ar
    34    25    18   ar
    35    30    26   ar
    36    25    21   ar
    37     1    31    1
    38     1    32    1
    39     2    33    1
    40     3    34    1
    41     6    35    1
    42    10    36    1
    43    11    37    1
    44    14    38    1
    45    20    39    1
    46    22    40    1
    47    23    41    1
    48    27    42    1
    49    28    43    1
