@<TRIPOS>MOLECULE
*****
 44 50 0 0 0
SMALL
GASTEIGER

@<TRIPOS>ATOM
      1 C           8.3551   -0.9195    0.0973 C.3     1  UNL1       -0.0081
      2 C           7.5406   -2.0596   -0.5188 C.2     1  UNL1       -0.0791
      3 C           6.2317   -1.7328   -0.6164 C.2     1  UNL1       -0.0568
      4 C           6.0329   -0.4194   -0.1122 C.ar    1  UNL1       -0.0066
      5 C           7.2810    0.0880    0.3262 C.ar    1  UNL1       -0.0289
      6 C           7.1823    1.3488    0.8443 C.ar    1  UNL1       -0.0197
      7 S           5.5457    1.8954    0.7835 S.2     1  UNL1       -0.0953
      8 C           4.9699    0.4267    0.0570 C.ar    1  UNL1        0.0333
      9 C           3.5886    0.2319   -0.3027 C.ar    1  UNL1        0.0271
     10 C           3.1097   -0.3546   -1.4571 C.ar    1  UNL1       -0.0458
     11 C           1.6862   -0.4068   -1.4912 C.ar    1  UNL1       -0.0448
     12 C           1.0979    0.1557   -0.3713 C.ar    1  UNL1        0.0403
     13 S           2.2994    0.6956    0.7249 S.2     1  UNL1       -0.0861
     14 C          -0.3277    0.2483   -0.0722 C.ar    1  UNL1        0.1056
     15 N          -1.1263   -0.7263   -0.6159 N.ar    1  UNL1       -0.2516
     16 C          -2.4793   -0.7359   -0.4002 C.ar    1  UNL1        0.0382
     17 C          -3.2416    0.1823    0.3300 C.ar    1  UNL1        0.0290
     18 C          -4.6778    0.0925    0.5098 C.ar    1  UNL1       -0.0061
     19 C          -5.3088   -0.0424    1.7766 C.ar    1  UNL1       -0.0533
     20 C          -6.7231   -0.1624    1.9723 C.ar    1  UNL1       -0.0606
     21 C          -7.6644   -0.1591    0.9238 C.ar    1  UNL1       -0.0535
     22 C          -7.0522   -0.0156   -0.3202 C.ar    1  UNL1       -0.0103
     23 C          -7.7739    0.0291   -1.4873 C.ar    1  UNL1       -0.0166
     24 S          -6.7457    0.2353   -2.8470 S.2     1  UNL1       -0.1039
     25 C          -5.3321    0.2700   -1.8668 C.ar    1  UNL1       -0.0160
     26 C          -5.6273    0.1062   -0.5318 C.ar    1  UNL1       -0.0031
     27 C          -2.4558    1.2187    0.8982 C.ar    1  UNL1        0.1111
     28 N          -2.9099    2.2414    1.6466 N.ar    1  UNL1       -0.1900
     29 S          -1.6041    3.1801    2.0330 S.2     1  UNL1        0.1166
     30 N          -0.3943    2.3424    1.2811 N.ar    1  UNL1       -0.1886
     31 C          -0.9533    1.2687    0.6925 C.ar    1  UNL1        0.1268
     32 H           8.8219   -1.2369    1.0338 H       1  UNL1        0.0356
     33 H           9.1107   -0.5572   -0.6052 H       1  UNL1        0.0356
     34 H           7.9712   -3.0020   -0.8229 H       1  UNL1        0.0575
     35 H           5.4510   -2.3715   -1.0047 H       1  UNL1        0.0621
     36 H           7.9573    1.9813    1.2538 H       1  UNL1        0.0696
     37 H           3.7477   -0.7265   -2.2495 H       1  UNL1        0.0629
     38 H           1.1117   -0.8344   -2.3051 H       1  UNL1        0.0630
     39 H          -2.9758   -1.5859   -0.8720 H       1  UNL1        0.0836
     40 H          -4.6826   -0.0569    2.6714 H       1  UNL1        0.0624
     41 H          -7.0891   -0.2593    2.9953 H       1  UNL1        0.0618
     42 H          -8.7295   -0.2480    1.0922 H       1  UNL1        0.0624
     43 H          -8.8440   -0.0401   -1.6267 H       1  UNL1        0.0699
     44 H          -4.3739    0.4148   -2.3456 H       1  UNL1        0.0700
@<TRIPOS>BOND
     1     1     2    1
     2     2     3    2
     3     3     4    1
     4     4     5   ar
     5     5     6   ar
     6     6     7   ar
     7     7     8   ar
     8     8     9    1
     9     9    10   ar
    10    10    11   ar
    11    11    12   ar
    12    12    13   ar
    13    12    14    1
    14    14    15   ar
    15    15    16   ar
    16    16    17   ar
    17    17    18    1
    18    18    19   ar
    19    19    20   ar
    20    20    21   ar
    21    21    22   ar
    22    22    23   ar
    23    23    24   ar
    24    24    25   ar
    25    25    26   ar
    26    17    27   ar
    27    27    28   ar
    28    28    29   ar
    29    29    30   ar
    30    30    31   ar
    31     5     1    1
    32    13     9   ar
    33    31    14   ar
    34     8     4   ar
    35    26    18   ar
    36    31    27   ar
    37    26    22   ar
    38     1    32    1
    39     1    33    1
    40     2    34    1
    41     3    35    1
    42     6    36    1
    43    10    37    1
    44    11    38    1
    45    16    39    1
    46    19    40    1
    47    20    41    1
    48    21    42    1
    49    23    43    1
    50    25    44    1
