@<TRIPOS>MOLECULE
*****
 35 39 0 0 0
SMALL
GASTEIGER

@<TRIPOS>ATOM
      1 C          -6.9745    0.5020   -0.3508 C.3     1  UNL1       -0.0081
      2 C          -6.4286   -0.8941   -0.6583 C.2     1  UNL1       -0.0791
      3 C          -5.1014   -0.9708   -0.4087 C.2     1  UNL1       -0.0568
      4 C          -4.6357    0.2845    0.0678 C.ar    1  UNL1       -0.0065
      5 C          -5.7303    1.1839    0.1059 C.ar    1  UNL1       -0.0289
      6 C          -5.3721    2.4299    0.5379 C.ar    1  UNL1       -0.0197
      7 S          -3.6841    2.4779    0.8933 S.2     1  UNL1       -0.0952
      8 C          -3.4365    0.8127    0.4656 C.ar    1  UNL1        0.0348
      9 C          -2.1540    0.1718    0.5702 C.ar    1  UNL1        0.0465
     10 C          -1.8848   -1.1239    0.9662 C.ar    1  UNL1        0.0437
     11 N          -0.5549   -1.5001    0.9604 N.ar    1  UNL1       -0.2462
     12 C           0.1952   -0.4893    0.5645 C.ar    1  UNL1        0.1154
     13 S          -0.6727    0.9457    0.1823 S.2     1  UNL1       -0.0662
     14 C           1.6327   -0.6206    0.4729 C.ar    1  UNL1        0.0449
     15 C           2.3577   -1.7568    0.7825 C.ar    1  UNL1       -0.0443
     16 C           3.7619   -1.5894    0.5944 C.ar    1  UNL1       -0.0449
     17 C           4.0896   -0.3256    0.1428 C.ar    1  UNL1        0.0361
     18 S           2.6794    0.6330   -0.0437 S.2     1  UNL1       -0.0847
     19 C           5.4006    0.1937   -0.1535 C.ar    1  UNL1        0.0531
     20 C           5.7928    1.4380   -0.6193 C.ar    1  UNL1       -0.0359
     21 C           7.2037    1.4402   -0.7454 C.ar    1  UNL1       -0.0438
     22 C           7.6475    0.1995   -0.3546 C.ar    1  UNL1        0.0022
     23 N           6.5532   -0.5455    0.0008 N.ar    1  UNL1       -0.3603
     24 H          -7.7295    0.4597    0.4390 H       1  UNL1        0.0356
     25 H          -7.3859    0.9660   -1.2514 H       1  UNL1        0.0356
     26 H          -7.0387   -1.7013   -1.0358 H       1  UNL1        0.0575
     27 H          -4.4861   -1.8463   -0.5613 H       1  UNL1        0.0621
     28 H          -5.9859    3.3106    0.6651 H       1  UNL1        0.0696
     29 H          -2.6272   -1.8468    1.2820 H       1  UNL1        0.0841
     30 H           1.8941   -2.6730    1.1313 H       1  UNL1        0.0630
     31 H           4.4812   -2.3743    0.7875 H       1  UNL1        0.0630
     32 H           5.1349    2.2668   -0.8482 H       1  UNL1        0.0639
     33 H           7.8241    2.2597   -1.0843 H       1  UNL1        0.0633
     34 H           8.6439   -0.2177   -0.2981 H       1  UNL1        0.0807
     35 H           6.5906   -1.4998    0.3295 H       1  UNL1        0.1653
@<TRIPOS>BOND
     1     1     2    1
     2     2     3    2
     3     3     4    1
     4     4     5   ar
     5     5     6   ar
     6     6     7   ar
     7     7     8   ar
     8     8     9    1
     9     9    10   ar
    10    10    11   ar
    11    11    12   ar
    12    12    13   ar
    13    12    14    1
    14    14    15   ar
    15    15    16   ar
    16    16    17   ar
    17    17    18   ar
    18    17    19    1
    19    19    20   ar
    20    20    21   ar
    21    21    22   ar
    22    22    23   ar
    23     5     1    1
    24    13     9   ar
    25    18    14   ar
    26    23    19   ar
    27     8     4   ar
    28     1    24    1
    29     1    25    1
    30     2    26    1
    31     3    27    1
    32     6    28    1
    33    10    29    1
    34    15    30    1
    35    16    31    1
    36    20    32    1
    37    21    33    1
    38    22    34    1
    39    23    35    1
