@<TRIPOS>MOLECULE
*****
 41 47 0 0 0
SMALL
GASTEIGER

@<TRIPOS>ATOM
      1 C          -7.3156    1.2148   -0.5298 C.3     1  UNL1       -0.0081
      2 C          -6.1692    2.1559   -0.9018 C.2     1  UNL1       -0.0791
      3 C          -4.9702    1.5397   -0.7928 C.2     1  UNL1       -0.0568
      4 C          -5.1608    0.1993   -0.3587 C.ar    1  UNL1       -0.0065
      5 C          -6.5530   -0.0234   -0.2023 C.ar    1  UNL1       -0.0289
      6 C          -6.8431   -1.2983    0.1947 C.ar    1  UNL1       -0.0197
      7 S          -5.3930   -2.2152    0.3671 S.2     1  UNL1       -0.0952
      8 C          -4.3676   -0.8835   -0.0823 C.ar    1  UNL1        0.0348
      9 C          -2.9371   -1.0310   -0.1129 C.ar    1  UNL1        0.0465
     10 C          -2.1953   -2.1487   -0.4447 C.ar    1  UNL1        0.0437
     11 N          -0.8222   -2.0094   -0.3757 N.ar    1  UNL1       -0.2461
     12 C          -0.5071   -0.7950    0.0261 C.ar    1  UNL1        0.1174
     13 S          -1.8577    0.2309    0.3163 S.2     1  UNL1       -0.0661
     14 C           0.8603   -0.3734    0.1787 C.ar    1  UNL1        0.0687
     15 S           2.1831   -1.2359   -0.5625 S.2     1  UNL1       -0.0833
     16 C           3.4008   -0.1644    0.0561 C.ar    1  UNL1        0.0327
     17 C           4.8021   -0.3406   -0.2630 C.ar    1  UNL1        0.0356
     18 C           5.5955    0.6630   -0.8297 C.ar    1  UNL1        0.0380
     19 N           6.9293    0.5969   -1.1542 N.ar    1  UNL1       -0.2604
     20 C           7.6430   -0.5445   -0.9271 C.ar    1  UNL1        0.0557
     21 C           6.9780   -1.6415   -0.3431 C.ar    1  UNL1        0.1185
     22 N           7.5196   -2.8322   -0.0387 N.ar    1  UNL1       -0.1892
     23 S           6.3039   -3.7392    0.6353 S.2     1  UNL1        0.1165
     24 N           5.0459   -2.6625    0.5766 N.ar    1  UNL1       -0.1900
     25 C           5.5126   -1.5370    0.0048 C.ar    1  UNL1        0.1110
     26 C           2.7622    0.7855    0.7739 C.ar    1  UNL1        0.0152
     27 C           3.0374    1.9416    1.5466 C.ar    1  UNL1       -0.0355
     28 C           1.8023    2.4211    2.0261 C.ar    1  UNL1        0.0028
     29 N           0.7426    1.6247    1.6011 N.ar    1  UNL1       -0.3597
     30 C           1.3892    0.6767    0.8544 C.ar    1  UNL1        0.0641
     31 H          -7.9881    1.0661   -1.3790 H       1  UNL1        0.0356
     32 H          -7.8667    1.5949    0.3350 H       1  UNL1        0.0356
     33 H          -6.3171    3.1780   -1.2179 H       1  UNL1        0.0575
     34 H          -4.0154    1.9944   -1.0145 H       1  UNL1        0.0621
     35 H          -7.8063   -1.7496    0.3882 H       1  UNL1        0.0696
     36 H          -2.6039   -3.1030   -0.7560 H       1  UNL1        0.0841
     37 H           5.1487    1.6293   -1.0681 H       1  UNL1        0.0836
     38 H           8.6896   -0.5502   -1.2011 H       1  UNL1        0.0852
     39 H           4.0019    2.3863    1.7549 H       1  UNL1        0.0639
     40 H           1.5935    3.2780    2.6543 H       1  UNL1        0.0807
     41 H          -0.2517    1.7011    1.7827 H       1  UNL1        0.1654
@<TRIPOS>BOND
     1     1     2    1
     2     2     3    2
     3     3     4    1
     4     4     5   ar
     5     5     6   ar
     6     6     7   ar
     7     7     8   ar
     8     8     9    1
     9     9    10   ar
    10    10    11   ar
    11    11    12   ar
    12    12    13   ar
    13    12    14    1
    14    14    15   ar
    15    15    16   ar
    16    16    17    1
    17    17    18   ar
    18    18    19   ar
    19    19    20   ar
    20    20    21   ar
    21    21    22   ar
    22    22    23   ar
    23    23    24   ar
    24    24    25   ar
    25    16    26   ar
    26    26    27   ar
    27    27    28   ar
    28    28    29   ar
    29    29    30   ar
    30     5     1    1
    31    13     9   ar
    32    30    14   ar
    33     8     4   ar
    34    25    17   ar
    35    30    26   ar
    36    25    21   ar
    37     1    31    1
    38     1    32    1
    39     2    33    1
    40     3    34    1
    41     6    35    1
    42    10    36    1
    43    18    37    1
    44    20    38    1
    45    27    39    1
    46    28    40    1
    47    29    41    1
