@<TRIPOS>MOLECULE
*****
 45 51 0 0 0
SMALL
GASTEIGER

@<TRIPOS>ATOM
      1 C          -8.3172   -0.2390    0.0456 C.3     1  UNL1        0.0000
      2 C          -7.5515   -1.2297   -0.8336 C.2     1  UNL1        0.0000
      3 C          -6.2164   -1.0274   -0.7555 C.2     1  UNL1        0.0000
      4 C          -5.9515    0.0517    0.1296 C.ar    1  UNL1        0.0000
      5 C          -7.1867    0.5456    0.6178 C.ar    1  UNL1        0.0000
      6 C          -7.0308    1.6034    1.4688 C.ar    1  UNL1        0.0000
      7 S          -5.3571    1.9829    1.6525 S.2     1  UNL1        0.0000
      8 C          -4.8414    0.7086    0.5878 C.ar    1  UNL1        0.0000
      9 C          -3.4245    0.5168    0.3373 C.ar    1  UNL1        0.0000
     10 N          -2.6584    1.6173    0.0592 N.ar    1  UNL1        0.0000
     11 C          -1.3171    1.4989   -0.1912 C.ar    1  UNL1        0.0000
     12 C          -0.5473    0.3305   -0.1987 C.ar    1  UNL1        0.0000
     13 C           0.8813    0.2736   -0.4690 C.2     1  UNL1        0.0000
     14 SI          2.1279    1.3741    0.4615 Si      1  UNL1        0.0000
     15 C           3.4804    0.5505   -0.5415 C.2     1  UNL1        0.0000
     16 C           2.9766   -0.3794   -1.3773 C.2     1  UNL1        0.0000
     17 C           1.5287   -0.5334   -1.3371 C.2     1  UNL1        0.0000
     18 C           4.8589    0.8307   -0.3960 C.ar    1  UNL1        0.0000
     19 S           5.4646    2.4476   -0.6576 S.2     1  UNL1        0.0000
     20 C           7.1002    2.0070   -0.3458 C.ar    1  UNL1        0.0000
     21 C           7.1630    0.6802   -0.0598 C.ar    1  UNL1        0.0000
     22 SI          8.5199   -0.5476    0.3796 Si      1  UNL1        0.0000
     23 C           7.1759   -1.9010    0.4939 C.2     1  UNL1        0.0000
     24 C           5.9492   -1.4021    0.2246 C.2     1  UNL1        0.0000
     25 C           5.9155    0.0001   -0.0839 C.ar    1  UNL1        0.0000
     26 C          -1.3036   -0.8380    0.0884 C.ar    1  UNL1        0.0000
     27 N          -0.8409   -2.1006    0.1621 N.ar    1  UNL1        0.0000
     28 S          -2.1239   -3.0706    0.5469 S.2     1  UNL1        0.0000
     29 N          -3.3391   -1.9521    0.6329 N.ar    1  UNL1        0.0000
     30 C          -2.7913   -0.7509    0.3671 C.ar    1  UNL1        0.0000
     31 H          -8.9812    0.3851   -0.5588 H       1  UNL1        0.0000
     32 H          -8.8829   -0.7630    0.8208 H       1  UNL1        0.0000
     33 H          -8.0313   -1.9887   -1.4332 H       1  UNL1        0.0000
     34 H          -5.4636   -1.5977   -1.2811 H       1  UNL1        0.0000
     35 H          -7.7846    2.1792    1.9869 H       1  UNL1        0.0000
     36 H          -0.8503    2.4585   -0.4174 H       1  UNL1        0.0000
     37 H           2.1579    1.0441    1.9094 H       1  UNL1        0.0000
     38 H           1.8934    2.8030    0.1269 H       1  UNL1        0.0000
     39 H           3.5743   -0.9899   -2.0442 H       1  UNL1        0.0000
     40 H           1.0416   -1.2644   -1.9725 H       1  UNL1        0.0000
     41 H           7.8899    2.7443   -0.3955 H       1  UNL1        0.0000
     42 H           9.4653   -0.8280   -0.7295 H       1  UNL1        0.0000
     43 H           9.1476   -0.3071    1.7028 H       1  UNL1        0.0000
     44 H           7.4310   -2.9164    0.7504 H       1  UNL1        0.0000
     45 H           5.0497   -2.0070    0.2431 H       1  UNL1        0.0000
@<TRIPOS>BOND
     1     1     2    1
     2     2     3    2
     3     3     4    1
     4     4     5   ar
     5     5     6   ar
     6     6     7   ar
     7     7     8   ar
     8     8     9    1
     9     9    10   ar
    10    10    11   ar
    11    11    12   ar
    12    12    13    1
    13    13    14    1
    14    14    15    1
    15    15    16    2
    16    16    17    1
    17    15    18    1
    18    18    19   ar
    19    19    20   ar
    20    20    21   ar
    21    21    22    1
    22    22    23    1
    23    23    24    2
    24    24    25    1
    25    12    26   ar
    26    26    27   ar
    27    27    28   ar
    28    28    29   ar
    29    29    30   ar
    30     5     1    1
    31    30     9   ar
    32     8     4   ar
    33    17    13    2
    34    25    18   ar
    35    30    26   ar
    36    25    21   ar
    37     1    31    1
    38     1    32    1
    39     2    33    1
    40     3    34    1
    41     6    35    1
    42    11    36    1
    43    14    37    1
    44    14    38    1
    45    16    39    1
    46    17    40    1
    47    20    41    1
    48    22    42    1
    49    22    43    1
    50    23    44    1
    51    24    45    1
