@<TRIPOS>MOLECULE
*****
 40 45 0 0 0
SMALL
GASTEIGER

@<TRIPOS>ATOM
      1 C          -7.2095    0.8951   -0.5328 C.3     1  UNL1       -0.0081
      2 C          -6.1608    1.9052   -1.0061 C.2     1  UNL1       -0.0791
      3 C          -4.9074    1.4202   -0.8535 C.2     1  UNL1       -0.0568
      4 C          -4.9710    0.1147   -0.2984 C.ar    1  UNL1       -0.0055
      5 C          -6.3297   -0.2250   -0.0936 C.ar    1  UNL1       -0.0288
      6 C          -6.4798   -1.4695    0.4499 C.ar    1  UNL1       -0.0196
      7 S          -4.9365   -2.1989    0.7103 S.2     1  UNL1       -0.0942
      8 C          -4.0635   -0.8470    0.0570 C.ar    1  UNL1        0.0471
      9 C          -2.6105   -0.8287    0.0049 C.ar    1  UNL1        0.1062
     10 N          -1.9897    0.3504    0.3105 N.ar    1  UNL1       -0.2515
     11 C          -0.6211    0.4541    0.2814 C.ar    1  UNL1        0.0397
     12 C           0.3268   -0.5321   -0.0342 C.ar    1  UNL1        0.0466
     13 C           1.7680   -0.2845   -0.0220 C.ar    1  UNL1        0.0746
     14 C           2.7327   -1.2533    0.2450 C.ar    1  UNL1       -0.0349
     15 C           4.0874   -0.9032    0.2432 C.ar    1  UNL1       -0.0476
     16 C           4.4751    0.4108   -0.0172 C.ar    1  UNL1        0.0354
     17 C           3.4475    1.3146   -0.2597 C.ar    1  UNL1        0.0389
     18 N           2.1238    1.0027   -0.2613 N.ar    1  UNL1       -0.2542
     19 C           5.8764    0.8076   -0.0288 C.ar    1  UNL1        0.1362
     20 C           7.0744    0.1430    0.1563 C.ar    1  UNL1       -0.0158
     21 C           8.1036    1.1068    0.0177 C.ar    1  UNL1       -0.0233
     22 C           7.4750    2.2999   -0.2431 C.ar    1  UNL1        0.0926
     23 O           6.1291    2.1296   -0.2731 O.2     1  UNL1       -0.4629
     24 C          -0.2858   -1.7627   -0.3935 C.ar    1  UNL1        0.1126
     25 N           0.3402   -2.8891   -0.7868 N.ar    1  UNL1       -0.1900
     26 S          -0.8231   -4.0166   -1.1160 S.2     1  UNL1        0.1166
     27 N          -2.1872   -3.1532   -0.7741 N.ar    1  UNL1       -0.1886
     28 C          -1.7983   -1.9257   -0.3803 C.ar    1  UNL1        0.1269
     29 H          -7.7950    1.3020    0.2963 H       1  UNL1        0.0356
     30 H          -7.8646    0.5995   -1.3569 H       1  UNL1        0.0356
     31 H          -6.4061    2.8790   -1.4026 H       1  UNL1        0.0575
     32 H          -3.9904    1.9366   -1.1020 H       1  UNL1        0.0621
     33 H          -7.3870   -1.9923    0.7180 H       1  UNL1        0.0696
     34 H          -0.2731    1.4538    0.5523 H       1  UNL1        0.0837
     35 H           2.4592   -2.2799    0.4671 H       1  UNL1        0.0639
     36 H           4.8248   -1.6740    0.4503 H       1  UNL1        0.0626
     37 H           3.6560    2.3614   -0.4689 H       1  UNL1        0.0837
     38 H           7.1971   -0.9101    0.3655 H       1  UNL1        0.0655
     39 H           9.1703    0.9510    0.0975 H       1  UNL1        0.0649
     40 H           7.8229    3.3078   -0.4224 H       1  UNL1        0.1029
@<TRIPOS>BOND
     1     1     2    1
     2     2     3    2
     3     3     4    1
     4     4     5   ar
     5     5     6   ar
     6     6     7   ar
     7     7     8   ar
     8     8     9    1
     9     9    10   ar
    10    10    11   ar
    11    11    12   ar
    12    12    13    1
    13    13    14   ar
    14    14    15   ar
    15    15    16   ar
    16    16    17   ar
    17    17    18   ar
    18    16    19    1
    19    19    20   ar
    20    20    21   ar
    21    21    22   ar
    22    22    23   ar
    23    12    24   ar
    24    24    25   ar
    25    25    26   ar
    26    26    27   ar
    27    27    28   ar
    28     5     1    1
    29    28     9   ar
    30     8     4   ar
    31    18    13   ar
    32    23    19   ar
    33    28    24   ar
    34     1    29    1
    35     1    30    1
    36     2    31    1
    37     3    32    1
    38     6    33    1
    39    11    34    1
    40    14    35    1
    41    15    36    1
    42    17    37    1
    43    20    38    1
    44    21    39    1
    45    22    40    1
