@<TRIPOS>MOLECULE
*****
 41 46 0 0 0
SMALL
GASTEIGER

@<TRIPOS>ATOM
      1 C          -7.5304    0.2650   -0.2127 C.3     1  UNL1       -0.0081
      2 C          -6.7586   -0.6021   -1.2094 C.2     1  UNL1       -0.0791
      3 C          -5.4260   -0.5414   -0.9864 C.2     1  UNL1       -0.0568
      4 C          -5.1684    0.3172    0.1157 C.ar    1  UNL1       -0.0055
      5 C          -6.4052    0.8176    0.5934 C.ar    1  UNL1       -0.0288
      6 C          -6.2547    1.6718    1.6492 C.ar    1  UNL1       -0.0196
      7 S          -4.5832    1.8547    2.0382 S.2     1  UNL1       -0.0942
      8 C          -4.0623    0.7692    0.7836 C.ar    1  UNL1        0.0471
      9 C          -2.6457    0.5019    0.6140 C.ar    1  UNL1        0.1062
     10 N          -1.7770    1.5591    0.6310 N.ar    1  UNL1       -0.2515
     11 C          -0.4297    1.3684    0.4730 C.ar    1  UNL1        0.0382
     12 C           0.2583    0.1616    0.2818 C.ar    1  UNL1        0.0299
     13 C           1.7086    0.0611    0.1310 C.ar    1  UNL1        0.0038
     14 C           2.3096   -0.6833   -0.8899 C.ar    1  UNL1       -0.0504
     15 C           3.7013   -0.7404   -1.0054 C.ar    1  UNL1       -0.0337
     16 C           4.4786   -0.0415   -0.0916 C.ar    1  UNL1        0.0871
     17 N           3.9343    0.6956    0.9016 N.ar    1  UNL1       -0.2529
     18 C           2.5830    0.7235    0.9921 C.ar    1  UNL1        0.0361
     19 C           5.9417   -0.0271   -0.1183 C.ar    1  UNL1        0.0649
     20 C           6.8324    0.7904    0.5636 C.ar    1  UNL1       -0.0349
     21 C           8.1500    0.4165    0.2108 C.ar    1  UNL1       -0.0438
     22 C           8.0477   -0.6313   -0.6723 C.ar    1  UNL1        0.0022
     23 N           6.7157   -0.8970   -0.8582 N.ar    1  UNL1       -0.3595
     24 C          -0.6136   -0.9618    0.2632 C.ar    1  UNL1        0.1112
     25 N          -0.2540   -2.2505    0.1107 N.ar    1  UNL1       -0.1900
     26 S          -1.6344   -3.1586    0.1927 S.2     1  UNL1        0.1166
     27 N          -2.7672   -1.9729    0.4023 N.ar    1  UNL1       -0.1886
     28 C          -2.1113   -0.7976    0.4341 C.ar    1  UNL1        0.1268
     29 H          -8.0856    1.0522   -0.7302 H       1  UNL1        0.0356
     30 H          -8.2048   -0.3455    0.3940 H       1  UNL1        0.0356
     31 H          -7.2336   -1.1838   -1.9853 H       1  UNL1        0.0575
     32 H          -4.6707   -1.0655   -1.5546 H       1  UNL1        0.0621
     33 H          -7.0105    2.2025    2.2109 H       1  UNL1        0.0696
     34 H           0.1271    2.3072    0.4967 H       1  UNL1        0.0836
     35 H           1.7023   -1.2257   -1.6119 H       1  UNL1        0.0625
     36 H           4.1416   -1.3161   -1.8100 H       1  UNL1        0.0640
     37 H           2.2153    1.3190    1.8251 H       1  UNL1        0.0836
     38 H           6.5451    1.5803    1.2470 H       1  UNL1        0.0639
     39 H           9.0695    0.8612    0.5682 H       1  UNL1        0.0633
     40 H           8.8051   -1.2148   -1.1780 H       1  UNL1        0.0807
     41 H           6.3597   -1.6389   -1.4438 H       1  UNL1        0.1654
@<TRIPOS>BOND
     1     1     2    1
     2     2     3    2
     3     3     4    1
     4     4     5   ar
     5     5     6   ar
     6     6     7   ar
     7     7     8   ar
     8     8     9    1
     9     9    10   ar
    10    10    11   ar
    11    11    12   ar
    12    12    13    1
    13    13    14   ar
    14    14    15   ar
    15    15    16   ar
    16    16    17   ar
    17    17    18   ar
    18    16    19    1
    19    19    20   ar
    20    20    21   ar
    21    21    22   ar
    22    22    23   ar
    23    12    24   ar
    24    24    25   ar
    25    25    26   ar
    26    26    27   ar
    27    27    28   ar
    28     5     1    1
    29    28     9   ar
    30     8     4   ar
    31    18    13   ar
    32    23    19   ar
    33    28    24   ar
    34     1    29    1
    35     1    30    1
    36     2    31    1
    37     3    32    1
    38     6    33    1
    39    11    34    1
    40    14    35    1
    41    15    36    1
    42    18    37    1
    43    20    38    1
    44    21    39    1
    45    22    40    1
    46    23    41    1
