@<TRIPOS>MOLECULE
*****
 47 53 0 0 0
SMALL
GASTEIGER

@<TRIPOS>ATOM
      1 C           6.8151    1.0548   -1.9955 C.3     1  UNL1        0.0000
      2 C           5.8095    2.1816   -1.7441 C.2     1  UNL1        0.0000
      3 C           4.6680    1.7090   -1.1934 C.2     1  UNL1        0.0000
      4 C           4.7730    0.3029   -1.0252 C.ar    1  UNL1        0.0000
      5 C           6.0432   -0.1163   -1.4907 C.ar    1  UNL1        0.0000
      6 C           6.2313   -1.4641   -1.3594 C.ar    1  UNL1        0.0000
      7 S           4.8328   -2.2003   -0.6600 S.2     1  UNL1        0.0000
      8 C           3.9795   -0.6963   -0.5340 C.ar    1  UNL1        0.0000
      9 C           2.6475   -0.6282   -0.0016 C.ar    1  UNL1        0.0000
     10 S           1.3532    0.0218   -0.9527 S.2     1  UNL1        0.0000
     11 C           0.1610   -0.2389    0.2798 C.ar    1  UNL1        0.0000
     12 C           0.7774   -0.8055    1.3586 C.ar    1  UNL1        0.0000
     13 SI          0.2264   -1.3895    3.0638 Si      1  UNL1        0.0000
     14 C           2.0421   -1.8724    3.4181 C.2     1  UNL1        0.0000
     15 C           2.8402   -1.6030    2.3617 C.2     1  UNL1        0.0000
     16 C           2.1759   -1.0283    1.2263 C.ar    1  UNL1        0.0000
     17 C          -1.2077    0.1055    0.0628 C.ar    1  UNL1        0.0000
     18 C          -1.5506    1.4087    0.1753 C.ar    1  UNL1        0.0000
     19 C          -2.9220    1.8866    0.0228 C.ar    1  UNL1        0.0000
     20 C          -3.9775    1.0727   -0.2238 C.ar    1  UNL1        0.0000
     21 C          -5.2628    1.7110   -0.2969 C.ar    1  UNL1        0.0000
     22 N          -5.5629    2.7814   -1.0155 N.ar    1  UNL1        0.0000
     23 C          -6.8782    3.1500   -0.8222 C.ar    1  UNL1        0.0000
     24 C          -7.5850    2.3801    0.0710 C.ar    1  UNL1        0.0000
     25 S          -6.5747    1.1517    0.6989 S.2     1  UNL1        0.0000
     26 C          -3.6825   -0.3594   -0.3946 C.ar    1  UNL1        0.0000
     27 C          -4.5621   -1.3279   -0.7276 C.2     1  UNL1        0.0000
     28 SI         -3.7347   -3.0000   -0.8496 Si      1  UNL1        0.0000
     29 C          -2.1222   -2.1713   -0.4276 C.2     1  UNL1        0.0000
     30 C          -2.2825   -0.8450   -0.2384 C.ar    1  UNL1        0.0000
     31 H           7.0404    0.9652   -3.0617 H       1  UNL1        0.0000
     32 H           7.7316    1.2163   -1.4213 H       1  UNL1        0.0000
     33 H           6.0024    3.2170   -1.9823 H       1  UNL1        0.0000
     34 H           3.8052    2.3002   -0.9199 H       1  UNL1        0.0000
     35 H           7.0907   -2.0625   -1.6272 H       1  UNL1        0.0000
     36 H          -0.6389   -2.5958    3.0474 H       1  UNL1        0.0000
     37 H          -0.2100   -0.2988    3.9713 H       1  UNL1        0.0000
     38 H           2.3272   -2.2990    4.3661 H       1  UNL1        0.0000
     39 H           3.9065   -1.7983    2.3667 H       1  UNL1        0.0000
     40 H          -0.8063    2.1682    0.4043 H       1  UNL1        0.0000
     41 H          -3.0626    2.9597    0.1420 H       1  UNL1        0.0000
     42 H          -7.2729    4.0023   -1.3618 H       1  UNL1        0.0000
     43 H          -8.6145    2.4828    0.3811 H       1  UNL1        0.0000
     44 H          -5.6163   -1.2286   -0.9280 H       1  UNL1        0.0000
     45 H          -3.7606   -3.5427   -2.2286 H       1  UNL1        0.0000
     46 H          -4.1921   -3.9265    0.2138 H       1  UNL1        0.0000
     47 H          -1.2005   -2.7308   -0.3846 H       1  UNL1        0.0000
@<TRIPOS>BOND
     1     1     2    1
     2     2     3    2
     3     3     4    1
     4     4     5   ar
     5     5     6   ar
     6     6     7   ar
     7     7     8   ar
     8     8     9    1
     9     9    10   ar
    10    10    11   ar
    11    11    12   ar
    12    12    13    1
    13    13    14    1
    14    14    15    2
    15    15    16    1
    16    11    17    1
    17    17    18   ar
    18    18    19   ar
    19    19    20   ar
    20    20    21    1
    21    21    22   ar
    22    22    23   ar
    23    23    24   ar
    24    24    25   ar
    25    20    26   ar
    26    26    27    2
    27    27    28    1
    28    28    29    1
    29    29    30    2
    30     5     1    1
    31    16     9   ar
    32    30    17   ar
    33     8     4   ar
    34    16    12   ar
    35    25    21   ar
    36    30    26   ar
    37     1    31    1
    38     1    32    1
    39     2    33    1
    40     3    34    1
    41     6    35    1
    42    13    36    1
    43    13    37    1
    44    14    38    1
    45    15    39    1
    46    18    40    1
    47    19    41    1
    48    23    42    1
    49    24    43    1
    50    27    44    1
    51    28    45    1
    52    28    46    1
    53    29    47    1
