@<TRIPOS>MOLECULE
*****
 48 54 0 0 0
SMALL
GASTEIGER

@<TRIPOS>ATOM
      1 C          -7.0206   -0.9798    1.0565 C.3     1  UNL1        0.0000
      2 C          -5.9278   -1.5290    1.9771 C.2     1  UNL1        0.0000
      3 C          -4.7166   -1.0143    1.6645 C.2     1  UNL1        0.0000
      4 C          -4.8510   -0.1201    0.5683 C.ar    1  UNL1        0.0000
      5 C          -6.2145   -0.0769    0.1854 C.ar    1  UNL1        0.0000
      6 C          -6.4379    0.7635   -0.8691 C.ar    1  UNL1        0.0000
      7 S          -4.9590    1.4989   -1.3719 S.2     1  UNL1        0.0000
      8 C          -4.0186    0.6798   -0.1662 C.ar    1  UNL1        0.0000
      9 C          -2.5992    0.8728   -0.0578 C.ar    1  UNL1        0.0000
     10 S          -1.5111   -0.4742   -0.0181 S.2     1  UNL1        0.0000
     11 C          -0.1065    0.5239    0.1006 C.ar    1  UNL1        0.0000
     12 C           1.2176   -0.0996    0.1818 C.ar    1  UNL1        0.0000
     13 C           1.6807   -0.4637    1.4525 C.ar    1  UNL1        0.0000
     14 C           2.9377   -1.0351    1.6071 C.ar    1  UNL1        0.0000
     15 C           3.7648   -1.2509    0.4949 C.ar    1  UNL1        0.0000
     16 C           5.0860   -1.8510    0.7231 C.ar    1  UNL1        0.0000
     17 N           5.4550   -3.0514    0.3212 N.ar    1  UNL1        0.0000
     18 C           6.7632   -3.2887    0.6928 C.ar    1  UNL1        0.0000
     19 C           7.3867   -2.2607    1.3665 C.ar    1  UNL1        0.0000
     20 S           6.3007   -0.9464    1.5527 S.2     1  UNL1        0.0000
     21 C           3.3157   -0.8990   -0.8099 C.ar    1  UNL1        0.0000
     22 C           4.1039   -1.1005   -1.9703 C.ar    1  UNL1        0.0000
     23 C           3.6591   -0.7396   -3.2422 C.ar    1  UNL1        0.0000
     24 C           2.4089   -0.1653   -3.3935 C.ar    1  UNL1        0.0000
     25 C           1.6069    0.0444   -2.2725 C.ar    1  UNL1        0.0000
     26 C           2.0290   -0.3106   -0.9671 C.ar    1  UNL1        0.0000
     27 C          -0.4640    1.8486    0.1158 C.ar    1  UNL1        0.0000
     28 C           0.3379    3.0321    0.2128 C.2     1  UNL1        0.0000
     29 C          -0.3557    4.1904    0.2158 C.2     1  UNL1        0.0000
     30 SI         -2.2380    3.8739    0.0817 Si      1  UNL1        0.0000
     31 C          -1.8730    2.0259    0.0231 C.ar    1  UNL1        0.0000
     32 H          -7.7716   -0.4271    1.6300 H       1  UNL1        0.0000
     33 H          -7.4890   -1.7850    0.4839 H       1  UNL1        0.0000
     34 H          -6.1161   -2.2391    2.7680 H       1  UNL1        0.0000
     35 H          -3.7855   -1.2446    2.1634 H       1  UNL1        0.0000
     36 H          -7.3654    0.9917   -1.3751 H       1  UNL1        0.0000
     37 H           1.0582   -0.3009    2.3299 H       1  UNL1        0.0000
     38 H           3.2698   -1.3184    2.6038 H       1  UNL1        0.0000
     39 H           7.2195   -4.2389    0.4410 H       1  UNL1        0.0000
     40 H           8.3967   -2.2192    1.7468 H       1  UNL1        0.0000
     41 H           5.0892   -1.5584   -1.8963 H       1  UNL1        0.0000
     42 H           4.2910   -0.9139   -4.1086 H       1  UNL1        0.0000
     43 H           2.0496    0.1168   -4.3795 H       1  UNL1        0.0000
     44 H           0.6284    0.4937   -2.4341 H       1  UNL1        0.0000
     45 H           1.4195    2.9879    0.2766 H       1  UNL1        0.0000
     46 H           0.0346    5.1928    0.2784 H       1  UNL1        0.0000
     47 H          -2.9248    4.3221    1.3179 H       1  UNL1        0.0000
     48 H          -2.7642    4.4431   -1.1828 H       1  UNL1        0.0000
@<TRIPOS>BOND
     1     1     2    1
     2     2     3    2
     3     3     4    1
     4     4     5   ar
     5     5     6   ar
     6     6     7   ar
     7     7     8   ar
     8     8     9    1
     9     9    10   ar
    10    10    11   ar
    11    11    12    1
    12    12    13   ar
    13    13    14   ar
    14    14    15   ar
    15    15    16    1
    16    16    17   ar
    17    17    18   ar
    18    18    19   ar
    19    19    20   ar
    20    15    21   ar
    21    21    22   ar
    22    22    23   ar
    23    23    24   ar
    24    24    25   ar
    25    25    26   ar
    26    11    27   ar
    27    27    28    1
    28    28    29    2
    29    29    30    1
    30    30    31    1
    31     5     1    1
    32    31     9   ar
    33     8     4   ar
    34    26    12   ar
    35    31    27   ar
    36    20    16   ar
    37    26    21   ar
    38     1    32    1
    39     1    33    1
    40     2    34    1
    41     3    35    1
    42     6    36    1
    43    13    37    1
    44    14    38    1
    45    18    39    1
    46    19    40    1
    47    22    41    1
    48    23    42    1
    49    24    43    1
    50    25    44    1
    51    28    45    1
    52    29    46    1
    53    30    47    1
    54    30    48    1
