@<TRIPOS>MOLECULE
*****
 43 49 0 0 0
SMALL
GASTEIGER

@<TRIPOS>ATOM
      1 SI          2.5595   -3.0025    2.2587 Si      1  UNL1        0.0000
      2 C           3.9707   -2.0076    1.5765 C.2     1  UNL1        0.0000
      3 C           3.5431   -0.9761    0.8169 C.ar    1  UNL1        0.0000
      4 C           4.4365   -0.0163    0.1461 C.ar    1  UNL1        0.0000
      5 C           5.8359   -0.0696    0.2233 C.ar    1  UNL1        0.0000
      6 C           6.6113    0.8757   -0.4402 C.ar    1  UNL1        0.0000
      7 C           5.9635    1.8530   -1.1661 C.ar    1  UNL1        0.0000
      8 N           4.6234    1.9389   -1.2653 N.ar    1  UNL1        0.0000
      9 C           3.8585    1.0105   -0.6139 C.ar    1  UNL1        0.0000
     10 C           2.3766    1.1452   -0.7526 C.ar    1  UNL1        0.0000
     11 N           1.9718    2.2026   -1.5298 N.ar    1  UNL1        0.0000
     12 C           0.6579    2.4070   -1.7146 C.ar    1  UNL1        0.0000
     13 C          -0.3038    1.5970   -1.1548 C.ar    1  UNL1        0.0000
     14 C          -1.7514    1.8006   -1.3427 C.2     1  UNL1        0.0000
     15 C          -2.5375    0.9019   -0.7140 C.2     1  UNL1        0.0000
     16 SI         -1.4810   -0.3469    0.2199 Si      1  UNL1        0.0000
     17 C           0.1024    0.5006   -0.3492 C.ar    1  UNL1        0.0000
     18 C           1.4688    0.2453   -0.1259 C.ar    1  UNL1        0.0000
     19 C           2.0637   -0.8570    0.6895 C.ar    1  UNL1        0.0000
     20 C           1.4089   -1.8224    1.3714 C.2     1  UNL1        0.0000
     21 C          -3.9713    0.8760   -0.7353 C.ar    1  UNL1        0.0000
     22 S          -4.8629    2.0840   -1.6383 S.2     1  UNL1        0.0000
     23 C          -6.3903    1.4513   -1.2212 C.ar    1  UNL1        0.0000
     24 C          -6.2690    0.3523   -0.4192 C.ar    1  UNL1        0.0000
     25 N          -7.3488   -0.3331    0.0488 N.ar    1  UNL1        0.0000
     26 C          -6.9582   -1.3805    0.8209 C.ar    1  UNL1        0.0000
     27 C          -5.6309   -1.7172    1.1026 C.ar    1  UNL1        0.0000
     28 N          -4.5373   -1.0480    0.6469 N.ar    1  UNL1        0.0000
     29 C          -4.8904    0.0167   -0.1367 C.ar    1  UNL1        0.0000
     30 H           2.4448   -2.8987    3.7326 H       1  UNL1        0.0000
     31 H           2.5010   -4.3733    1.6986 H       1  UNL1        0.0000
     32 H           4.9833   -2.2914    1.8104 H       1  UNL1        0.0000
     33 H           6.3414   -0.8405    0.7957 H       1  UNL1        0.0000
     34 H           7.6938    0.8483   -0.3904 H       1  UNL1        0.0000
     35 H           6.5165    2.6171   -1.7044 H       1  UNL1        0.0000
     36 H           0.4064    3.2586   -2.3383 H       1  UNL1        0.0000
     37 H          -2.0936    2.6280   -1.9514 H       1  UNL1        0.0000
     38 H          -1.5672   -1.7248   -0.3338 H       1  UNL1        0.0000
     39 H          -1.6240   -0.2541    1.6975 H       1  UNL1        0.0000
     40 H           0.3595   -2.0110    1.4794 H       1  UNL1        0.0000
     41 H          -7.3002    1.9099   -1.5798 H       1  UNL1        0.0000
     42 H          -7.7708   -1.9745    1.2298 H       1  UNL1        0.0000
     43 H          -5.4104   -2.5750    1.7322 H       1  UNL1        0.0000
@<TRIPOS>BOND
     1     1     2    1
     2     2     3    2
     3     3     4   ar
     4     4     5   ar
     5     5     6   ar
     6     6     7   ar
     7     7     8   ar
     8     8     9   ar
     9     9    10   ar
    10    10    11   ar
    11    11    12   ar
    12    12    13   ar
    13    13    14    1
    14    14    15    2
    15    15    16    1
    16    16    17    1
    17    17    18   ar
    18    18    19   ar
    19    19    20    2
    20    15    21    1
    21    21    22   ar
    22    22    23   ar
    23    23    24   ar
    24    24    25   ar
    25    25    26   ar
    26    26    27   ar
    27    27    28   ar
    28    28    29   ar
    29    20     1    1
    30    29    21   ar
    31    19     3   ar
    32    29    24   ar
    33     9     4   ar
    34    18    10   ar
    35    17    13   ar
    36     1    30    1
    37     1    31    1
    38     2    32    1
    39     5    33    1
    40     6    34    1
    41     7    35    1
    42    12    36    1
    43    14    37    1
    44    16    38    1
    45    16    39    1
    46    20    40    1
    47    23    41    1
    48    26    42    1
    49    27    43    1
