@<TRIPOS>MOLECULE
*****
 47 53 0 0 0
SMALL
GASTEIGER

@<TRIPOS>ATOM
      1 C          -7.2210   -0.0084    1.9744 C.3     1  UNL1       -0.0081
      2 C          -6.6265    1.3786    1.7195 C.2     1  UNL1       -0.0791
      3 C          -5.3492    1.2932    1.2829 C.2     1  UNL1       -0.0568
      4 C          -4.9669   -0.0723    1.2012 C.ar    1  UNL1       -0.0065
      5 C          -6.0622   -0.8723    1.6103 C.ar    1  UNL1       -0.0289
      6 C          -5.7805   -2.2090    1.5692 C.ar    1  UNL1       -0.0197
      7 S          -4.1610   -2.4640    1.0268 S.2     1  UNL1       -0.0952
      8 C          -3.8397   -0.7656    0.8535 C.ar    1  UNL1        0.0354
      9 C          -2.5662   -0.2715    0.3973 C.ar    1  UNL1        0.0545
     10 S          -1.0933   -0.8206    1.1086 S.2     1  UNL1       -0.0833
     11 C          -0.1190    0.1699    0.1001 C.ar    1  UNL1        0.0480
     12 C           1.3401    0.1259    0.2478 C.ar    1  UNL1       -0.0014
     13 C           1.9163    0.9671    1.2088 C.ar    1  UNL1       -0.0522
     14 C           3.2924    0.9791    1.3995 C.ar    1  UNL1       -0.0509
     15 C           4.1282    0.1541    0.6309 C.ar    1  UNL1        0.0148
     16 C           5.5756    0.2135    0.8799 C.ar    1  UNL1        0.1088
     17 N           6.3039   -0.7731    1.3637 N.ar    1  UNL1       -0.2473
     18 C           7.6232   -0.3784    1.4622 C.ar    1  UNL1        0.0354
     19 C           7.8935    0.9055    1.0440 C.ar    1  UNL1       -0.0042
     20 S           6.4489    1.6543    0.5077 S.2     1  UNL1       -0.0757
     21 C           3.5689   -0.7167   -0.3476 C.ar    1  UNL1       -0.0076
     22 C           4.3615   -1.5786   -1.1470 C.ar    1  UNL1       -0.0534
     23 C           3.8055   -2.4196   -2.1107 C.ar    1  UNL1       -0.0611
     24 C           2.4357   -2.4237   -2.3070 C.ar    1  UNL1       -0.0611
     25 C           1.6264   -1.5892   -1.5367 C.ar    1  UNL1       -0.0534
     26 C           2.1589   -0.7251   -0.5471 C.ar    1  UNL1       -0.0090
     27 C          -0.8955    0.9186   -0.7535 C.ar    1  UNL1        0.1045
     28 N          -0.3808    1.7979   -1.6619 N.ar    1  UNL1       -0.2508
     29 C          -1.3681    2.3889   -2.3845 C.ar    1  UNL1        0.0464
     30 C          -2.7356    2.1446   -2.2265 C.ar    1  UNL1        0.0464
     31 N          -3.2779    1.2819   -1.3267 N.ar    1  UNL1       -0.2507
     32 C          -2.3099    0.6653   -0.5836 C.ar    1  UNL1        0.1050
     33 H          -7.5011   -0.1245    3.0250 H       1  UNL1        0.0356
     34 H          -8.0824   -0.1878    1.3252 H       1  UNL1        0.0356
     35 H          -7.1723    2.2980    1.8683 H       1  UNL1        0.0575
     36 H          -4.7118    2.1271    1.0245 H       1  UNL1        0.0621
     37 H          -6.4141   -3.0479    1.8204 H       1  UNL1        0.0696
     38 H           1.2912    1.6195    1.8151 H       1  UNL1        0.0624
     39 H           3.7128    1.6340    2.1603 H       1  UNL1        0.0625
     40 H           8.3558   -1.0762    1.8493 H       1  UNL1        0.0835
     41 H           8.8413    1.4234    1.0273 H       1  UNL1        0.0709
     42 H           5.4426   -1.6109   -1.0203 H       1  UNL1        0.0624
     43 H           4.4467   -3.0685   -2.7009 H       1  UNL1        0.0618
     44 H           1.9909   -3.0741   -3.0551 H       1  UNL1        0.0618
     45 H           0.5552   -1.6232   -1.7243 H       1  UNL1        0.0624
     46 H          -1.0234    3.0981   -3.1319 H       1  UNL1        0.0845
     47 H          -3.4572    2.6630   -2.8519 H       1  UNL1        0.0845
@<TRIPOS>BOND
     1     1     2    1
     2     2     3    2
     3     3     4    1
     4     4     5   ar
     5     5     6   ar
     6     6     7   ar
     7     7     8   ar
     8     8     9    1
     9     9    10   ar
    10    10    11   ar
    11    11    12    1
    12    12    13   ar
    13    13    14   ar
    14    14    15   ar
    15    15    16    1
    16    16    17   ar
    17    17    18   ar
    18    18    19   ar
    19    19    20   ar
    20    15    21   ar
    21    21    22   ar
    22    22    23   ar
    23    23    24   ar
    24    24    25   ar
    25    25    26   ar
    26    11    27   ar
    27    27    28   ar
    28    28    29   ar
    29    29    30   ar
    30    30    31   ar
    31    31    32   ar
    32     5     1    1
    33    32     9   ar
    34     8     4   ar
    35    26    12   ar
    36    32    27   ar
    37    20    16   ar
    38    26    21   ar
    39     1    33    1
    40     1    34    1
    41     2    35    1
    42     3    36    1
    43     6    37    1
    44    13    38    1
    45    14    39    1
    46    18    40    1
    47    19    41    1
    48    22    42    1
    49    23    43    1
    50    24    44    1
    51    25    45    1
    52    29    46    1
    53    30    47    1
