@<TRIPOS>MOLECULE
*****
 44 50 0 0 0
SMALL
GASTEIGER

@<TRIPOS>ATOM
      1 C          -6.9093    1.8356   -0.2215 C.3     1  UNL1       -0.0081
      2 C          -6.2690    1.6434    1.1565 C.2     1  UNL1       -0.0791
      3 C          -5.0070    1.1680    1.0511 C.2     1  UNL1       -0.0568
      4 C          -4.6818    0.9952   -0.3201 C.ar    1  UNL1       -0.0066
      5 C          -5.7932    1.3912   -1.1035 C.ar    1  UNL1       -0.0289
      6 C          -5.5574    1.2730   -2.4451 C.ar    1  UNL1       -0.0197
      7 S          -3.9607    0.6724   -2.7236 S.2     1  UNL1       -0.0952
      8 C          -3.5951    0.5718   -1.0329 C.ar    1  UNL1        0.0336
      9 C          -2.3354    0.0821   -0.5549 C.ar    1  UNL1        0.0311
     10 S          -0.8329    0.8066   -1.0166 S.2     1  UNL1       -0.0868
     11 C           0.1093   -0.2951   -0.0738 C.ar    1  UNL1        0.0294
     12 C           1.5544   -0.1746   -0.0360 C.ar    1  UNL1        0.0175
     13 C           2.2378    0.2935    1.0990 C.ar    1  UNL1       -0.0507
     14 C           3.6453    0.4075    1.1495 C.ar    1  UNL1       -0.0483
     15 C           4.5152    0.0690    0.0781 C.ar    1  UNL1        0.0474
     16 C           5.9652    0.2111    0.1693 C.ar    1  UNL1        0.1651
     17 N           6.6362    0.6262   -0.9066 N.ar    1  UNL1       -0.2159
     18 C           7.9482    0.7536   -0.7333 C.ar    1  UNL1        0.1200
     19 N           8.6133    0.5310    0.3970 N.ar    1  UNL1       -0.2241
     20 C           7.8393    0.1468    1.4075 C.ar    1  UNL1        0.1200
     21 N           6.5194   -0.0220    1.3659 N.ar    1  UNL1       -0.2159
     22 C           3.8692   -0.4408   -1.0888 C.ar    1  UNL1        0.1111
     23 N           4.4542   -0.8834   -2.2173 N.ar    1  UNL1       -0.1900
     24 S           3.2519   -1.3594   -3.2470 S.2     1  UNL1        0.1165
     25 N           1.9179   -1.0721   -2.3151 N.ar    1  UNL1       -0.1901
     26 C           2.3525   -0.5641   -1.1479 C.ar    1  UNL1        0.1088
     27 C          -0.7291   -1.1592    0.5685 C.ar    1  UNL1       -0.0064
     28 C          -0.5815   -2.2598    1.4509 C.2     1  UNL1       -0.0568
     29 C          -1.8027   -2.7589    1.7487 C.2     1  UNL1       -0.0791
     30 C          -2.9134   -1.9747    1.0417 C.3     1  UNL1       -0.0075
     31 C          -2.1057   -0.9585    0.3077 C.ar    1  UNL1       -0.0206
     32 H          -7.1663    2.8854   -0.3876 H       1  UNL1        0.0356
     33 H          -7.7932    1.2014   -0.3316 H       1  UNL1        0.0356
     34 H          -6.7721    1.8739    2.0837 H       1  UNL1        0.0575
     35 H          -4.3378    0.9624    1.8745 H       1  UNL1        0.0621
     36 H          -6.2099    1.5006   -3.2762 H       1  UNL1        0.0696
     37 H           1.6631    0.5906    1.9773 H       1  UNL1        0.0625
     38 H           4.0867    0.7900    2.0731 H       1  UNL1        0.0625
     39 H           8.5279    1.0713   -1.5932 H       1  UNL1        0.1048
     40 H           8.3295   -0.0454    2.3558 H       1  UNL1        0.1048
     41 H           0.3635   -2.6400    1.8126 H       1  UNL1        0.0621
     42 H          -1.9900   -3.6054    2.3925 H       1  UNL1        0.0575
     43 H          -3.4719   -2.6217    0.3595 H       1  UNL1        0.0356
     44 H          -3.5844   -1.5184    1.7737 H       1  UNL1        0.0356
@<TRIPOS>BOND
     1     1     2    1
     2     2     3    2
     3     3     4    1
     4     4     5   ar
     5     5     6   ar
     6     6     7   ar
     7     7     8   ar
     8     8     9    1
     9     9    10   ar
    10    10    11   ar
    11    11    12    1
    12    12    13   ar
    13    13    14   ar
    14    14    15   ar
    15    15    16    1
    16    16    17   ar
    17    17    18   ar
    18    18    19   ar
    19    19    20   ar
    20    20    21   ar
    21    15    22   ar
    22    22    23   ar
    23    23    24   ar
    24    24    25   ar
    25    25    26   ar
    26    11    27   ar
    27    27    28    1
    28    28    29    2
    29    29    30    1
    30    30    31    1
    31     5     1    1
    32    31     9   ar
    33     8     4   ar
    34    26    12   ar
    35    31    27   ar
    36    21    16   ar
    37    26    22   ar
    38     1    32    1
    39     1    33    1
    40     2    34    1
    41     3    35    1
    42     6    36    1
    43    13    37    1
    44    14    38    1
    45    18    39    1
    46    20    40    1
    47    28    41    1
    48    29    42    1
    49    30    43    1
    50    30    44    1
