@<TRIPOS>MOLECULE
*****
 41 47 0 0 0
SMALL
GASTEIGER

@<TRIPOS>ATOM
      1 C           7.1990    1.1524    0.8861 C.3     1  UNL1       -0.0081
      2 C           6.2523    2.2057    0.3035 C.2     1  UNL1       -0.0791
      3 C           5.0095    1.7040    0.1205 C.2     1  UNL1       -0.0568
      4 C           4.9855    0.3443    0.5297 C.ar    1  UNL1       -0.0065
      5 C           6.2744   -0.0116    0.9963 C.ar    1  UNL1       -0.0289
      6 C           6.3367   -1.3076    1.4271 C.ar    1  UNL1       -0.0197
      7 S           4.7975   -2.0733    1.2510 S.2     1  UNL1       -0.0952
      8 C           4.0531   -0.6540    0.5911 C.ar    1  UNL1        0.0339
      9 C           2.6792   -0.6334    0.1832 C.ar    1  UNL1        0.0354
     10 S           1.3923   -1.0872    1.2342 S.2     1  UNL1       -0.0839
     11 C           0.1687   -0.7470    0.0649 C.ar    1  UNL1        0.0592
     12 C          -1.2241   -0.9234    0.3510 C.ar    1  UNL1        0.1164
     13 N          -1.6779   -1.9841    0.9879 N.ar    1  UNL1       -0.2461
     14 C          -3.0467   -1.8860    1.1431 C.ar    1  UNL1        0.0433
     15 C          -3.6305   -0.7393    0.6426 C.ar    1  UNL1        0.0415
     16 S          -2.4100    0.2632   -0.0261 S.2     1  UNL1       -0.0666
     17 C          -5.0199   -0.3174    0.6765 C.ar    1  UNL1        0.0184
     18 C          -5.7323   -0.1671    1.8872 C.ar    1  UNL1       -0.0513
     19 C          -7.0879    0.2334    1.9450 C.ar    1  UNL1       -0.0590
     20 C          -7.8539    0.5115    0.8004 C.ar    1  UNL1       -0.0335
     21 C          -7.1981    0.3650   -0.4459 C.ar    1  UNL1        0.1005
     22 N          -7.7555    0.5739   -1.6483 N.ar    1  UNL1       -0.1908
     23 S          -6.5776    0.2550   -2.7733 S.2     1  UNL1        0.1165
     24 N          -5.3113   -0.1647   -1.7893 N.ar    1  UNL1       -0.1901
     25 C          -5.7484   -0.0621   -0.5212 C.ar    1  UNL1        0.1081
     26 C           0.7380   -0.3306   -1.1103 C.ar    1  UNL1        0.0367
     27 S           0.0355    0.1227   -2.7195 S.2     1  UNL1       -0.0954
     28 C           1.6976    0.3860   -3.2147 C.ar    1  UNL1       -0.0231
     29 C           2.6773    0.1440   -2.2475 C.ar    1  UNL1       -0.0458
     30 C           2.1311   -0.2733   -1.0038 C.ar    1  UNL1        0.0052
     31 H           7.5763    1.4666    1.8631 H       1  UNL1        0.0356
     32 H           8.0269    0.9517    0.2006 H       1  UNL1        0.0356
     33 H           6.5537    3.2185    0.0811 H       1  UNL1        0.0575
     34 H           4.1596    2.2485   -0.2667 H       1  UNL1        0.0621
     35 H           7.1769   -1.8525    1.8341 H       1  UNL1        0.0696
     36 H          -3.5758   -2.6924    1.6368 H       1  UNL1        0.0841
     37 H          -5.2163   -0.3559    2.8302 H       1  UNL1        0.0624
     38 H          -7.5600    0.3323    2.9233 H       1  UNL1        0.0618
     39 H          -8.8918    0.8175    0.8598 H       1  UNL1        0.0640
     40 H           1.8620    0.7083   -4.2341 H       1  UNL1        0.0694
     41 H           3.7349    0.2586   -2.4539 H       1  UNL1        0.0629
@<TRIPOS>BOND
     1     1     2    1
     2     2     3    2
     3     3     4    1
     4     4     5   ar
     5     5     6   ar
     6     6     7   ar
     7     7     8   ar
     8     8     9    1
     9     9    10   ar
    10    10    11   ar
    11    11    12    1
    12    12    13   ar
    13    13    14   ar
    14    14    15   ar
    15    15    16   ar
    16    15    17    1
    17    17    18   ar
    18    18    19   ar
    19    19    20   ar
    20    20    21   ar
    21    21    22   ar
    22    22    23   ar
    23    23    24   ar
    24    24    25   ar
    25    11    26   ar
    26    26    27   ar
    27    27    28   ar
    28    28    29   ar
    29    29    30   ar
    30     5     1    1
    31    30     9   ar
    32     8     4   ar
    33    16    12   ar
    34    25    17   ar
    35    30    26   ar
    36    25    21   ar
    37     1    31    1
    38     1    32    1
    39     2    33    1
    40     3    34    1
    41     6    35    1
    42    14    36    1
    43    18    37    1
    44    19    38    1
    45    20    39    1
    46    28    40    1
    47    29    41    1
