@<TRIPOS>MOLECULE
*****
 42 48 0 0 0
SMALL
GASTEIGER

@<TRIPOS>ATOM
      1 C          -6.3853    2.4225    0.5590 C.3     1  UNL1       -0.0081
      2 C          -5.1357    3.2002    0.1431 C.2     1  UNL1       -0.0791
      3 C          -4.0698    2.3797    0.0011 C.2     1  UNL1       -0.0568
      4 C          -4.4570    1.0429    0.2894 C.ar    1  UNL1       -0.0065
      5 C          -5.8362    1.0383    0.6185 C.ar    1  UNL1       -0.0289
      6 C          -6.3071   -0.2139    0.8966 C.ar    1  UNL1       -0.0197
      7 S          -5.0413   -1.3764    0.7447 S.2     1  UNL1       -0.0952
      8 C          -3.8526   -0.1858    0.3103 C.ar    1  UNL1        0.0339
      9 C          -2.4894   -0.5548    0.0506 C.ar    1  UNL1        0.0363
     10 S          -1.1395    0.4019    0.5989 S.2     1  UNL1       -0.0844
     11 C           0.0499   -0.6724   -0.0570 C.ar    1  UNL1        0.0514
     12 C           1.4551   -0.4533    0.0484 C.ar    1  UNL1        0.0429
     13 S           2.2332    0.9498   -0.5746 S.2     1  UNL1       -0.0828
     14 C           3.8050    0.4390   -0.0785 C.ar    1  UNL1        0.0632
     15 C           4.9912    1.2133   -0.3208 C.ar    1  UNL1        0.1419
     16 C           5.1339    2.4522   -0.9309 C.ar    1  UNL1       -0.0154
     17 C           6.5121    2.7782   -0.9218 C.ar    1  UNL1       -0.0233
     18 C           7.1427    1.7259   -0.3088 C.ar    1  UNL1        0.0926
     19 O           6.2416    0.7817    0.0554 O.2     1  UNL1       -0.4624
     20 C           3.6635   -0.7606    0.5414 C.ar    1  UNL1        0.0076
     21 C           4.5694   -1.6645    1.1618 C.ar    1  UNL1       -0.0458
     22 C           3.9364   -2.7965    1.6843 C.ar    1  UNL1       -0.0231
     23 S           2.1958   -2.8775    1.4792 S.2     1  UNL1       -0.0955
     24 C           2.3712   -1.2852    0.6344 C.ar    1  UNL1        0.0353
     25 C          -0.5974   -1.6943   -0.6600 C.ar    1  UNL1        0.0626
     26 N          -0.0511   -2.7592   -1.3218 N.ar    1  UNL1       -0.3597
     27 C          -1.1913   -3.4492   -1.7235 C.ar    1  UNL1        0.0028
     28 C          -2.3681   -2.7940   -1.3054 C.ar    1  UNL1       -0.0355
     29 C          -1.9738   -1.6268   -0.5967 C.ar    1  UNL1        0.0156
     30 H          -6.7471    2.7596    1.5343 H       1  UNL1        0.0356
     31 H          -7.1712    2.5165   -0.1955 H       1  UNL1        0.0356
     32 H          -5.1237    4.2679   -0.0170 H       1  UNL1        0.0575
     33 H          -3.0768    2.6883   -0.2932 H       1  UNL1        0.0621
     34 H          -7.3055   -0.5212    1.1739 H       1  UNL1        0.0696
     35 H           4.3340    3.0561   -1.3370 H       1  UNL1        0.0656
     36 H           6.9836    3.6687   -1.3127 H       1  UNL1        0.0649
     37 H           8.1735    1.5071   -0.0670 H       1  UNL1        0.1029
     38 H           5.6397   -1.5128    1.2392 H       1  UNL1        0.0629
     39 H           4.4106   -3.6188    2.2031 H       1  UNL1        0.0694
     40 H           0.9306   -2.9695   -1.4576 H       1  UNL1        0.1654
     41 H          -1.0775   -4.3677   -2.2849 H       1  UNL1        0.0807
     42 H          -3.3757   -3.1353   -1.5037 H       1  UNL1        0.0639
@<TRIPOS>BOND
     1     1     2    1
     2     2     3    2
     3     3     4    1
     4     4     5   ar
     5     5     6   ar
     6     6     7   ar
     7     7     8   ar
     8     8     9    1
     9     9    10   ar
    10    10    11   ar
    11    11    12    1
    12    12    13   ar
    13    13    14   ar
    14    14    15    1
    15    15    16   ar
    16    16    17   ar
    17    17    18   ar
    18    18    19   ar
    19    14    20   ar
    20    20    21   ar
    21    21    22   ar
    22    22    23   ar
    23    23    24   ar
    24    11    25   ar
    25    25    26   ar
    26    26    27   ar
    27    27    28   ar
    28    28    29   ar
    29     5     1    1
    30    29     9   ar
    31     8     4   ar
    32    24    12   ar
    33    29    25   ar
    34    19    15   ar
    35    24    20   ar
    36     1    30    1
    37     1    31    1
    38     2    32    1
    39     3    33    1
    40     6    34    1
    41    16    35    1
    42    17    36    1
    43    18    37    1
    44    21    38    1
    45    22    39    1
    46    26    40    1
    47    27    41    1
    48    28    42    1
