@<TRIPOS>MOLECULE
*****
 42 48 0 0 0
SMALL
GASTEIGER

@<TRIPOS>ATOM
      1 C          -6.9062   -0.8418    0.5811 C.3     1  UNL1       -0.0081
      2 C          -6.2135   -1.4074   -0.6608 C.2     1  UNL1       -0.0791
      3 C          -4.9132   -1.0385   -0.7094 C.2     1  UNL1       -0.0568
      4 C          -4.6062   -0.2360    0.4215 C.ar    1  UNL1       -0.0065
      5 C          -5.7748   -0.1037    1.2113 C.ar    1  UNL1       -0.0289
      6 C          -5.5691    0.6524    2.3311 C.ar    1  UNL1       -0.0197
      7 S          -3.9297    1.1907    2.3982 S.2     1  UNL1       -0.0952
      8 C          -3.4977    0.3963    0.9149 C.ar    1  UNL1        0.0354
      9 C          -2.1659    0.4645    0.3710 C.ar    1  UNL1        0.0545
     10 S          -0.7890    0.1218    1.3479 S.2     1  UNL1       -0.0828
     11 C           0.3213    0.3799    0.0625 C.ar    1  UNL1        0.0546
     12 C           1.7326    0.2200    0.2726 C.ar    1  UNL1        0.0369
     13 S           2.6729   -0.8843   -0.6582 S.2     1  UNL1       -0.0854
     14 C           4.1382   -0.5103    0.1719 C.ar    1  UNL1        0.0408
     15 C           5.3954   -1.1402   -0.1201 C.ar    1  UNL1        0.0270
     16 C           6.2786   -1.7080    0.7801 C.ar    1  UNL1       -0.0464
     17 C           7.4418   -2.2397    0.1493 C.ar    1  UNL1       -0.0541
     18 C           7.4120   -2.0627   -1.2148 C.ar    1  UNL1       -0.0237
     19 S           5.9907   -1.2631   -1.7260 S.2     1  UNL1       -0.0961
     20 C           3.9081    0.4391    1.1341 C.ar    1  UNL1        0.0352
     21 S           5.0073    1.2650    2.3156 S.2     1  UNL1       -0.0955
     22 C           3.5695    2.1282    2.8321 C.ar    1  UNL1       -0.0231
     23 C           2.3832    1.8131    2.1624 C.ar    1  UNL1       -0.0458
     24 C           2.5628    0.8184    1.1628 C.ar    1  UNL1        0.0052
     25 C          -0.3433    0.7228   -1.0945 C.ar    1  UNL1        0.1050
     26 N           0.2847    1.0046   -2.2747 N.ar    1  UNL1       -0.2507
     27 C          -0.6094    1.3217   -3.2467 C.ar    1  UNL1        0.0464
     28 C          -1.9961    1.3626   -3.0792 C.ar    1  UNL1        0.0464
     29 N          -2.6517    1.0911   -1.9203 N.ar    1  UNL1       -0.2507
     30 C          -1.7798    0.7669   -0.9185 C.ar    1  UNL1        0.1050
     31 H          -7.2739   -1.6476    1.2223 H       1  UNL1        0.0356
     32 H          -7.7231   -0.1716    0.2998 H       1  UNL1        0.0356
     33 H          -6.7146   -2.0168   -1.3978 H       1  UNL1        0.0575
     34 H          -4.2100   -1.3005   -1.4875 H       1  UNL1        0.0621
     35 H          -6.2686    0.9224    3.1096 H       1  UNL1        0.0696
     36 H           6.1005   -1.7489    1.8481 H       1  UNL1        0.0629
     37 H           8.2563   -2.7270    0.6710 H       1  UNL1        0.0623
     38 H           8.1556   -2.3647   -1.9394 H       1  UNL1        0.0693
     39 H           3.6887    2.8507    3.6282 H       1  UNL1        0.0694
     40 H           1.4427    2.2963    2.3985 H       1  UNL1        0.0629
     41 H          -0.1691    1.5552   -4.2122 H       1  UNL1        0.0845
     42 H          -2.6381    1.6291   -3.9142 H       1  UNL1        0.0845
@<TRIPOS>BOND
     1     1     2    1
     2     2     3    2
     3     3     4    1
     4     4     5   ar
     5     5     6   ar
     6     6     7   ar
     7     7     8   ar
     8     8     9    1
     9     9    10   ar
    10    10    11   ar
    11    11    12    1
    12    12    13   ar
    13    13    14   ar
    14    14    15    1
    15    15    16   ar
    16    16    17   ar
    17    17    18   ar
    18    18    19   ar
    19    14    20   ar
    20    20    21   ar
    21    21    22   ar
    22    22    23   ar
    23    23    24   ar
    24    11    25   ar
    25    25    26   ar
    26    26    27   ar
    27    27    28   ar
    28    28    29   ar
    29    29    30   ar
    30     5     1    1
    31    30     9   ar
    32     8     4   ar
    33    24    12   ar
    34    30    25   ar
    35    19    15   ar
    36    24    20   ar
    37     1    31    1
    38     1    32    1
    39     2    33    1
    40     3    34    1
    41     6    35    1
    42    16    36    1
    43    17    37    1
    44    18    38    1
    45    22    39    1
    46    23    40    1
    47    27    41    1
    48    28    42    1
