@<TRIPOS>MOLECULE
*****
 46 52 0 0 0
SMALL
GASTEIGER

@<TRIPOS>ATOM
      1 C          -5.5763    1.1174   -1.1040 C.3     1  UNL1       -0.0075
      2 C          -7.1099    1.1142   -1.1349 C.2     1  UNL1       -0.0791
      3 C          -7.6240    0.5314   -0.0272 C.2     1  UNL1       -0.0574
      4 C          -6.5627    0.1089    0.8101 C.ar    1  UNL1       -0.0142
      5 C          -6.4532   -0.5157    2.0143 C.ar    1  UNL1       -0.0163
      6 S          -4.7800   -0.6972    2.4142 S.2     1  UNL1       -0.0958
      7 C          -4.2494    0.0581    0.9497 C.ar    1  UNL1        0.0240
      8 C          -5.3313    0.4418    0.2016 C.ar    1  UNL1       -0.0217
      9 C          -2.8385    0.2319    0.6874 C.ar    1  UNL1       -0.0019
     10 C          -2.1665    1.4747    0.7599 C.ar    1  UNL1       -0.0523
     11 C          -0.7684    1.6453    0.4732 C.ar    1  UNL1       -0.0514
     12 C           0.0977    0.5929    0.0846 C.ar    1  UNL1        0.0075
     13 C           1.5113    0.7718   -0.1809 C.ar    1  UNL1        0.0476
     14 C           2.1804    1.7762   -0.8554 C.ar    1  UNL1       -0.0358
     15 C           3.5677    1.4913   -0.8021 C.ar    1  UNL1       -0.0352
     16 C           3.7355    0.3276   -0.0769 C.ar    1  UNL1        0.0572
     17 N           2.4777   -0.0802    0.3034 N.ar    1  UNL1       -0.3536
     18 C           4.9221   -0.3905    0.2748 C.ar    1  UNL1        0.0783
     19 S           4.9336   -1.8689    1.1946 S.2     1  UNL1       -0.0909
     20 C           6.6659   -2.0205    1.1496 C.ar    1  UNL1       -0.0128
     21 C           7.1483   -0.9698    0.4547 C.ar    1  UNL1        0.0278
     22 C           8.3724   -0.4373    0.0235 C.ar    1  UNL1       -0.0156
     23 C           8.0313    0.7271   -0.6755 C.ar    1  UNL1        0.0932
     24 O           6.6736    0.9828   -0.7252 O.2     1  UNL1       -0.4617
     25 C           6.2064   -0.0873   -0.0194 C.ar    1  UNL1        0.1509
     26 C          -0.5858   -0.6289   -0.0057 C.ar    1  UNL1        0.0091
     27 C          -0.1036   -1.8495   -0.4176 C.ar    1  UNL1        0.0101
     28 N          -1.1502   -2.7461   -0.3670 N.ar    1  UNL1       -0.3659
     29 C          -2.2998   -2.1146    0.0516 C.ar    1  UNL1        0.0100
     30 C          -1.9822   -0.7975    0.2808 C.ar    1  UNL1        0.0082
     31 H          -5.1902    2.1403   -1.1132 H       1  UNL1        0.0356
     32 H          -5.1698    0.5449   -1.9424 H       1  UNL1        0.0356
     33 H          -7.6883    1.5292   -1.9467 H       1  UNL1        0.0575
     34 H          -8.6743    0.4037    0.1929 H       1  UNL1        0.0621
     35 H          -7.2253   -0.8710    2.6814 H       1  UNL1        0.0699
     36 H          -2.7334    2.3574    1.0573 H       1  UNL1        0.0624
     37 H          -0.3542    2.6488    0.5775 H       1  UNL1        0.0624
     38 H           1.7176    2.6214   -1.3483 H       1  UNL1        0.0639
     39 H           4.3584    2.0822   -1.2467 H       1  UNL1        0.0639
     40 H           2.2877   -0.8942    0.8712 H       1  UNL1        0.1659
     41 H           7.1741   -2.8471    1.6249 H       1  UNL1        0.0701
     42 H           9.3723   -0.8157    0.1790 H       1  UNL1        0.0655
     43 H           8.6333    1.4676   -1.1859 H       1  UNL1        0.1030
     44 H           0.8681   -2.1723   -0.7645 H       1  UNL1        0.0813
     45 H          -1.0889   -3.7229   -0.6237 H       1  UNL1        0.1648
     46 H          -3.2295   -2.6618    0.1341 H       1  UNL1        0.0813
@<TRIPOS>BOND
     1     1     2    1
     2     2     3    2
     3     3     4    1
     4     4     5   ar
     5     5     6   ar
     6     6     7   ar
     7     7     8   ar
     8     7     9    1
     9     9    10   ar
    10    10    11   ar
    11    11    12   ar
    12    12    13    1
    13    13    14   ar
    14    14    15   ar
    15    15    16   ar
    16    16    17   ar
    17    16    18    1
    18    18    19   ar
    19    19    20   ar
    20    20    21   ar
    21    21    22   ar
    22    22    23   ar
    23    23    24   ar
    24    24    25   ar
    25    12    26   ar
    26    26    27   ar
    27    27    28   ar
    28    28    29   ar
    29    29    30   ar
    30     8     1    1
    31    30     9   ar
    32     8     4   ar
    33    17    13   ar
    34    25    18   ar
    35    30    26   ar
    36    25    21   ar
    37     1    31    1
    38     1    32    1
    39     2    33    1
    40     3    34    1
    41     5    35    1
    42    10    36    1
    43    11    37    1
    44    14    38    1
    45    15    39    1
    46    17    40    1
    47    20    41    1
    48    22    42    1
    49    23    43    1
    50    27    44    1
    51    28    45    1
    52    29    46    1
