@<TRIPOS>MOLECULE
*****
 43 48 0 0 0
SMALL
GASTEIGER

@<TRIPOS>ATOM
      1 C          -5.3812    0.4904   -1.7526 C.3     1  UNL1        0.0000
      2 C          -6.8541    0.7869   -2.0575 C.2     1  UNL1        0.0000
      3 C          -7.6424    0.5102   -0.9937 C.2     1  UNL1        0.0000
      4 C          -6.8377    0.0282    0.0674 C.ar    1  UNL1        0.0000
      5 C          -7.0545   -0.4032    1.3391 C.ar    1  UNL1        0.0000
      6 S          -5.5480   -0.8567    2.0524 S.2     1  UNL1        0.0000
      7 C          -4.6373   -0.4655    0.6266 C.ar    1  UNL1        0.0000
      8 C          -5.4856    0.0043   -0.3456 C.ar    1  UNL1        0.0000
      9 C          -3.1835   -0.6339    0.6025 C.ar    1  UNL1        0.0000
     10 C          -2.3611    0.4140    0.1739 C.ar    1  UNL1        0.0000
     11 C          -0.9699    0.2600    0.1307 C.ar    1  UNL1        0.0000
     12 C          -0.3632   -0.9453    0.5115 C.ar    1  UNL1        0.0000
     13 C          -1.1908   -1.9929    0.9379 C.ar    1  UNL1        0.0000
     14 C          -2.5830   -1.8402    0.9819 C.ar    1  UNL1        0.0000
     15 C           1.0879   -1.1112    0.4675 C.ar    1  UNL1        0.0000
     16 C           1.9556   -2.1344    0.7853 C.ar    1  UNL1        0.0000
     17 C           3.2611   -1.6592    0.5063 C.ar    1  UNL1        0.0000
     18 C           3.1401   -0.3618    0.0367 C.ar    1  UNL1        0.0000
     19 O           1.8046   -0.0441    0.0098 O.2     1  UNL1        0.0000
     20 C           4.1627    0.5555   -0.3905 C.ar    1  UNL1        0.0000
     21 S           3.7946    1.7561   -1.5932 S.2     1  UNL1        0.0000
     22 C           5.3971    2.3876   -1.6075 C.ar    1  UNL1        0.0000
     23 C           6.1567    1.7064   -0.7088 C.ar    1  UNL1        0.0000
     24 SI          7.9432    1.7921   -0.1220 Si      1  UNL1        0.0000
     25 C           7.5459    0.3699    1.0881 C.2     1  UNL1        0.0000
     26 C           6.2596   -0.0299    0.9803 C.2     1  UNL1        0.0000
     27 C           5.4788    0.6729    0.0003 C.ar    1  UNL1        0.0000
     28 H          -4.7818    1.4017   -1.8279 H       1  UNL1        0.0000
     29 H          -4.9934   -0.2817   -2.4227 H       1  UNL1        0.0000
     30 H          -7.1994    1.1682   -3.0069 H       1  UNL1        0.0000
     31 H          -8.7154    0.6318   -0.9507 H       1  UNL1        0.0000
     32 H          -7.9788   -0.4839    1.8928 H       1  UNL1        0.0000
     33 H          -2.7919    1.3690   -0.1180 H       1  UNL1        0.0000
     34 H          -0.3627    1.0996   -0.2032 H       1  UNL1        0.0000
     35 H          -0.7680   -2.9474    1.2405 H       1  UNL1        0.0000
     36 H          -3.1930   -2.6802    1.3073 H       1  UNL1        0.0000
     37 H           1.6869   -3.1096    1.1647 H       1  UNL1        0.0000
     38 H           4.1830   -2.2110    0.6189 H       1  UNL1        0.0000
     39 H           5.6613    3.2087   -2.2600 H       1  UNL1        0.0000
     40 H           8.9350    1.3623   -1.1387 H       1  UNL1        0.0000
     41 H           8.2820    3.0366    0.6115 H       1  UNL1        0.0000
     42 H           8.2979   -0.0102    1.7607 H       1  UNL1        0.0000
     43 H           5.8429   -0.8103    1.6049 H       1  UNL1        0.0000
@<TRIPOS>BOND
     1     1     2    1
     2     2     3    2
     3     3     4    1
     4     4     5   ar
     5     5     6   ar
     6     6     7   ar
     7     7     8   ar
     8     7     9    1
     9     9    10   ar
    10    10    11   ar
    11    11    12   ar
    12    12    13   ar
    13    13    14   ar
    14    12    15    1
    15    15    16   ar
    16    16    17   ar
    17    17    18   ar
    18    18    19   ar
    19    18    20    1
    20    20    21   ar
    21    21    22   ar
    22    22    23   ar
    23    23    24    1
    24    24    25    1
    25    25    26    2
    26    26    27    1
    27     8     1    1
    28    14     9   ar
    29    19    15   ar
    30    27    20   ar
    31     8     4   ar
    32    27    23   ar
    33     1    28    1
    34     1    29    1
    35     2    30    1
    36     3    31    1
    37     5    32    1
    38    10    33    1
    39    11    34    1
    40    13    35    1
    41    14    36    1
    42    16    37    1
    43    17    38    1
    44    22    39    1
    45    24    40    1
    46    24    41    1
    47    25    42    1
    48    26    43    1
