@<TRIPOS>MOLECULE
*****
 43 48 0 0 0
SMALL
GASTEIGER

@<TRIPOS>ATOM
      1 C          -5.1385   -1.0865    1.5557 C.3     1  UNL1       -0.0075
      2 C          -6.5826   -1.2018    2.0553 C.2     1  UNL1       -0.0791
      3 C          -7.3938   -0.3236    1.4228 C.2     1  UNL1       -0.0574
      4 C          -6.6325    0.4237    0.4914 C.ar    1  UNL1       -0.0142
      5 C          -6.8886    1.4106   -0.4089 C.ar    1  UNL1       -0.0163
      6 S          -5.4257    1.8327   -1.2232 S.2     1  UNL1       -0.0957
      7 C          -4.4793    0.6705   -0.3460 C.ar    1  UNL1        0.0248
      8 C          -5.2840    0.0006    0.5428 C.ar    1  UNL1       -0.0217
      9 C          -3.0453    0.5423   -0.5961 C.ar    1  UNL1        0.0071
     10 C          -2.1309    0.5124    0.4571 C.ar    1  UNL1       -0.0501
     11 C          -0.7649    0.3761    0.1962 C.ar    1  UNL1       -0.0354
     12 C          -0.3319    0.2664   -1.1218 C.ar    1  UNL1        0.0674
     13 N          -1.2002    0.2880   -2.1606 N.ar    1  UNL1       -0.2547
     14 C          -2.5204    0.4252   -1.8786 C.ar    1  UNL1        0.0364
     15 C           1.0819    0.1207   -1.4669 C.2     1  UNL1       -0.0177
     16 C           2.2016    0.0784   -0.4647 C.3     1  UNL1        0.0007
     17 C           3.4344   -0.0818   -1.3362 C.2     1  UNL1       -0.0286
     18 C           3.0321   -0.1192   -2.6208 C.2     1  UNL1       -0.0569
     19 C           1.5986    0.0043   -2.7010 C.2     1  UNL1       -0.0559
     20 C           4.7925   -0.1793   -0.9167 C.ar    1  UNL1        0.0249
     21 S           6.1481   -0.3721   -2.0184 S.2     1  UNL1       -0.0943
     22 C           7.3410   -0.4024   -0.7633 C.ar    1  UNL1        0.0002
     23 C           6.7007   -0.2705    0.4128 C.ar    1  UNL1        0.0542
     24 N           7.2687   -0.2447    1.6527 N.ar    1  UNL1       -0.3602
     25 C           6.1448   -0.0916    2.4613 C.ar    1  UNL1        0.0028
     26 C           4.9602   -0.0313    1.6962 C.ar    1  UNL1       -0.0356
     27 C           5.3324   -0.1510    0.3288 C.ar    1  UNL1        0.0141
     28 H          -4.4709   -0.7986    2.3722 H       1  UNL1        0.0356
     29 H          -4.8082   -2.0247    1.1012 H       1  UNL1        0.0356
     30 H          -6.8952   -1.9020    2.8157 H       1  UNL1        0.0575
     31 H          -8.4549   -0.2054    1.5914 H       1  UNL1        0.0621
     32 H          -7.8198    1.9060   -0.6442 H       1  UNL1        0.0699
     33 H          -2.4673    0.6107    1.4859 H       1  UNL1        0.0625
     34 H          -0.0670    0.3619    1.0259 H       1  UNL1        0.0639
     35 H          -3.1632    0.4258   -2.7552 H       1  UNL1        0.0836
     36 H           2.0964   -0.7754    0.2136 H       1  UNL1        0.0362
     37 H           2.2555    1.0091    0.1109 H       1  UNL1        0.0362
     38 H           3.6469   -0.2241   -3.5024 H       1  UNL1        0.0621
     39 H           1.0420    0.0015   -3.6273 H       1  UNL1        0.0621
     40 H           8.3967   -0.5113   -0.9662 H       1  UNL1        0.0714
     41 H           8.2500   -0.3190    1.8913 H       1  UNL1        0.1653
     42 H           6.2755   -0.0360    3.5345 H       1  UNL1        0.0807
     43 H           3.9651    0.0855    2.1027 H       1  UNL1        0.0639
@<TRIPOS>BOND
     1     1     2    1
     2     2     3    2
     3     3     4    1
     4     4     5   ar
     5     5     6   ar
     6     6     7   ar
     7     7     8   ar
     8     7     9    1
     9     9    10   ar
    10    10    11   ar
    11    11    12   ar
    12    12    13   ar
    13    13    14   ar
    14    12    15    1
    15    15    16    1
    16    16    17    1
    17    17    18    2
    18    18    19    1
    19    17    20    1
    20    20    21   ar
    21    21    22   ar
    22    22    23   ar
    23    23    24   ar
    24    24    25   ar
    25    25    26   ar
    26    26    27   ar
    27     8     1    1
    28    14     9   ar
    29    19    15    2
    30    27    20   ar
    31     8     4   ar
    32    27    23   ar
    33     1    28    1
    34     1    29    1
    35     2    30    1
    36     3    31    1
    37     5    32    1
    38    10    33    1
    39    11    34    1
    40    14    35    1
    41    16    36    1
    42    16    37    1
    43    18    38    1
    44    19    39    1
    45    22    40    1
    46    24    41    1
    47    25    42    1
    48    26    43    1
