@<TRIPOS>MOLECULE
*****
 43 48 0 0 0
SMALL
GASTEIGER

@<TRIPOS>ATOM
      1 C           6.0459   -0.9913    0.3341 C.3     1  UNL1        0.0000
      2 C           7.5636   -0.7849    0.3415 C.2     1  UNL1        0.0000
      3 C           7.9262    0.2234   -0.4832 C.2     1  UNL1        0.0000
      4 C           6.7673    0.7681   -1.0879 C.ar    1  UNL1        0.0000
      5 C           6.5119    1.7721   -1.9680 C.ar    1  UNL1        0.0000
      6 S           4.8115    1.8718   -2.2375 S.2     1  UNL1        0.0000
      7 C           4.4503    0.5574   -1.1565 C.ar    1  UNL1        0.0000
      8 C           5.6237    0.0716   -0.6283 C.ar    1  UNL1        0.0000
      9 C           3.1066    0.0964   -0.9157 C.ar    1  UNL1        0.0000
     10 C           2.6972   -1.1711   -0.5482 C.ar    1  UNL1        0.0000
     11 N           1.3403   -1.3470   -0.3571 N.ar    1  UNL1        0.0000
     12 C           0.6993   -0.2182   -0.5893 C.ar    1  UNL1        0.0000
     13 S           1.7187    1.1013   -1.0295 S.2     1  UNL1        0.0000
     14 C          -0.7440   -0.0262   -0.4891 C.ar    1  UNL1        0.0000
     15 C          -1.5251    0.8279   -1.3159 C.ar    1  UNL1        0.0000
     16 C          -2.9489    0.9953   -1.1990 C.ar    1  UNL1        0.0000
     17 C          -3.7477    0.3326   -0.2378 C.ar    1  UNL1        0.0000
     18 C          -5.1785    0.5017   -0.1137 C.2     1  UNL1        0.0000
     19 SI         -5.9682    1.4227    1.3311 Si      1  UNL1        0.0000
     20 C          -7.6302    1.1372    0.4851 C.2     1  UNL1        0.0000
     21 C          -7.4801    0.4612   -0.6688 C.2     1  UNL1        0.0000
     22 C          -6.1088    0.1158   -1.0111 C.2     1  UNL1        0.0000
     23 C          -2.9769   -0.5189    0.5632 C.ar    1  UNL1        0.0000
     24 C          -3.4135   -1.3508    1.5669 C.ar    1  UNL1        0.0000
     25 N          -2.3086   -1.9986    2.0730 N.ar    1  UNL1        0.0000
     26 C          -1.1744   -1.5982    1.4038 C.ar    1  UNL1        0.0000
     27 C          -1.5551   -0.6909    0.4434 C.ar    1  UNL1        0.0000
     28 H           5.7995   -1.9929   -0.0287 H       1  UNL1        0.0000
     29 H           5.6264   -0.8278    1.3308 H       1  UNL1        0.0000
     30 H           8.2424   -1.3780    0.9363 H       1  UNL1        0.0000
     31 H           8.9356    0.5691   -0.6564 H       1  UNL1        0.0000
     32 H           7.1954    2.4472   -2.4626 H       1  UNL1        0.0000
     33 H           3.3487   -2.0239   -0.4082 H       1  UNL1        0.0000
     34 H          -1.0318    1.3941   -2.1072 H       1  UNL1        0.0000
     35 H          -3.4342    1.6800   -1.8964 H       1  UNL1        0.0000
     36 H          -5.6214    2.8660    1.3713 H       1  UNL1        0.0000
     37 H          -5.8921    0.6886    2.6203 H       1  UNL1        0.0000
     38 H          -8.5518    1.4900    0.9195 H       1  UNL1        0.0000
     39 H          -8.3012    0.1860   -1.3192 H       1  UNL1        0.0000
     40 H          -5.8839   -0.4092   -1.9319 H       1  UNL1        0.0000
     41 H          -4.3962   -1.5561    1.9684 H       1  UNL1        0.0000
     42 H          -2.3279   -2.6808    2.8202 H       1  UNL1        0.0000
     43 H          -0.2099   -2.0126    1.6662 H       1  UNL1        0.0000
@<TRIPOS>BOND
     1     1     2    1
     2     2     3    2
     3     3     4    1
     4     4     5   ar
     5     5     6   ar
     6     6     7   ar
     7     7     8   ar
     8     7     9    1
     9     9    10   ar
    10    10    11   ar
    11    11    12   ar
    12    12    13   ar
    13    12    14    1
    14    14    15   ar
    15    15    16   ar
    16    16    17   ar
    17    17    18    1
    18    18    19    1
    19    19    20    1
    20    20    21    2
    21    21    22    1
    22    17    23   ar
    23    23    24   ar
    24    24    25   ar
    25    25    26   ar
    26    26    27   ar
    27     8     1    1
    28    13     9   ar
    29    27    14   ar
    30     8     4   ar
    31    22    18    2
    32    27    23   ar
    33     1    28    1
    34     1    29    1
    35     2    30    1
    36     3    31    1
    37     5    32    1
    38    10    33    1
    39    15    34    1
    40    16    35    1
    41    19    36    1
    42    19    37    1
    43    20    38    1
    44    21    39    1
    45    22    40    1
    46    24    41    1
    47    25    42    1
    48    26    43    1
