@<TRIPOS>MOLECULE
*****
 45 51 0 0 0
SMALL
GASTEIGER

@<TRIPOS>ATOM
      1 C          -6.0949    1.2290    0.8173 C.3     1  UNL1       -0.0075
      2 C          -7.6169    1.4113    0.8301 C.2     1  UNL1       -0.0791
      3 C          -8.2255    0.5201    0.0157 C.2     1  UNL1       -0.0574
      4 C          -7.2426   -0.2924   -0.5997 C.ar    1  UNL1       -0.0142
      5 C          -7.2507   -1.3119   -1.4992 C.ar    1  UNL1       -0.0163
      6 S          -5.6279   -1.8006   -1.8195 S.2     1  UNL1       -0.0942
      7 C          -4.9443   -0.6235   -0.7342 C.ar    1  UNL1        0.0437
      8 C          -5.9584    0.0985   -0.1499 C.ar    1  UNL1       -0.0202
      9 C          -3.4995   -0.5423   -0.5933 C.ar    1  UNL1        0.1059
     10 N          -2.7336   -0.6062   -1.7250 N.ar    1  UNL1       -0.2515
     11 C          -1.3671   -0.5270   -1.6568 C.ar    1  UNL1        0.0382
     12 C          -0.5617   -0.3782   -0.5191 C.ar    1  UNL1        0.0284
     13 C           0.9002   -0.3112   -0.5575 C.ar    1  UNL1       -0.0143
     14 C           1.6455   -1.2588   -1.2776 C.ar    1  UNL1       -0.0533
     15 C           3.0440   -1.1928   -1.3363 C.ar    1  UNL1       -0.0529
     16 C           3.7446   -0.1724   -0.6803 C.ar    1  UNL1       -0.0092
     17 C           3.0066    0.7709    0.0442 C.ar    1  UNL1       -0.0529
     18 C           1.6084    0.7038    0.1024 C.ar    1  UNL1       -0.0533
     19 C           5.2122   -0.0867   -0.7336 C.ar    1  UNL1        0.0468
     20 S           6.0275   -0.2778   -2.2493 S.2     1  UNL1       -0.0923
     21 C           7.5768   -0.0446   -1.5569 C.ar    1  UNL1        0.0038
     22 C           7.4899    0.1839   -0.2094 C.ar    1  UNL1        0.0968
     23 N           8.5831    0.4024    0.5733 N.ar    1  UNL1       -0.2514
     24 C           8.2141    0.5987    1.8686 C.ar    1  UNL1        0.0464
     25 C           6.8970    0.5836    2.3428 C.ar    1  UNL1        0.0464
     26 N           5.7905    0.3710    1.5798 N.ar    1  UNL1       -0.2508
     27 C           6.1275    0.1668    0.2712 C.ar    1  UNL1        0.1039
     28 C          -1.3246   -0.3093    0.6789 C.ar    1  UNL1        0.1111
     29 N          -0.8436   -0.1789    1.9296 N.ar    1  UNL1       -0.1900
     30 S          -2.1379   -0.1762    2.9578 S.2     1  UNL1        0.1166
     31 N          -3.3840   -0.3199    1.8802 N.ar    1  UNL1       -0.1886
     32 C          -2.8392   -0.3924    0.6511 C.ar    1  UNL1        0.1268
     33 H          -5.5974    2.1342    0.4585 H       1  UNL1        0.0356
     34 H          -5.7445    0.9669    1.8180 H       1  UNL1        0.0356
     35 H          -8.1211    2.1575    1.4256 H       1  UNL1        0.0575
     36 H          -9.2901    0.4372   -0.1510 H       1  UNL1        0.0621
     37 H          -8.0843   -1.7917   -1.9916 H       1  UNL1        0.0699
     38 H          -0.8971   -0.5821   -2.6403 H       1  UNL1        0.0836
     39 H           1.1470   -2.0782   -1.7930 H       1  UNL1        0.0624
     40 H           3.5764   -1.9619   -1.8920 H       1  UNL1        0.0624
     41 H           3.5130    1.5740    0.5767 H       1  UNL1        0.0624
     42 H           1.0796    1.4630    0.6762 H       1  UNL1        0.0624
     43 H           8.4687   -0.0829   -2.1651 H       1  UNL1        0.0715
     44 H           9.0376    0.7774    2.5546 H       1  UNL1        0.0845
     45 H           6.6966    0.7498    3.3977 H       1  UNL1        0.0845
@<TRIPOS>BOND
     1     1     2    1
     2     2     3    2
     3     3     4    1
     4     4     5   ar
     5     5     6   ar
     6     6     7   ar
     7     7     8   ar
     8     7     9    1
     9     9    10   ar
    10    10    11   ar
    11    11    12   ar
    12    12    13    1
    13    13    14   ar
    14    14    15   ar
    15    15    16   ar
    16    16    17   ar
    17    17    18   ar
    18    16    19    1
    19    19    20   ar
    20    20    21   ar
    21    21    22   ar
    22    22    23   ar
    23    23    24   ar
    24    24    25   ar
    25    25    26   ar
    26    26    27   ar
    27    12    28   ar
    28    28    29   ar
    29    29    30   ar
    30    30    31   ar
    31    31    32   ar
    32     8     1    1
    33    32     9   ar
    34     8     4   ar
    35    18    13   ar
    36    27    19   ar
    37    32    28   ar
    38    27    22   ar
    39     1    33    1
    40     1    34    1
    41     2    35    1
    42     3    36    1
    43     5    37    1
    44    11    38    1
    45    14    39    1
    46    15    40    1
    47    17    41    1
    48    18    42    1
    49    21    43    1
    50    24    44    1
    51    25    45    1
