@<TRIPOS>MOLECULE
*****
 48 55 0 0 0
SMALL
GASTEIGER

@<TRIPOS>ATOM
      1 SI         -4.1745   -3.3810   -0.7599 Si      1  UNL1        0.0000
      2 C          -5.1055   -1.9325   -0.0364 C.2     1  UNL1        0.0000
      3 C          -4.3046   -0.8574    0.1236 C.ar    1  UNL1        0.0000
      4 C          -4.7764    0.4986    0.4559 C.ar    1  UNL1        0.0000
      5 C          -6.0760    0.7866    0.8904 C.ar    1  UNL1        0.0000
      6 C          -6.4529    2.1046    1.1274 C.ar    1  UNL1        0.0000
      7 C          -5.5169    3.0989    0.9210 C.ar    1  UNL1        0.0000
      8 N          -4.2538    2.8629    0.5145 N.ar    1  UNL1        0.0000
      9 C          -3.8795    1.5694    0.2855 C.ar    1  UNL1        0.0000
     10 C          -2.4487    1.3355   -0.0805 C.ar    1  UNL1        0.0000
     11 N          -1.6885    2.4502   -0.2636 N.ar    1  UNL1        0.0000
     12 C          -0.3652    2.3018   -0.4772 C.ar    1  UNL1        0.0000
     13 C           0.3222    1.0989   -0.4286 C.ar    1  UNL1        0.0000
     14 C           1.7593    1.1096   -0.5917 C.ar    1  UNL1        0.0000
     15 C           2.5861   -0.0243   -0.4717 C.ar    1  UNL1        0.0000
     16 C           4.0255   -0.0098   -0.5807 C.ar    1  UNL1        0.0000
     17 S           4.7865   -0.5863   -2.0214 S.2     1  UNL1        0.0000
     18 C           6.3763   -0.2519   -1.4280 C.ar    1  UNL1        0.0000
     19 C           6.3182    0.2870   -0.1712 C.ar    1  UNL1        0.0000
     20 C           7.3593    0.7194    0.7096 C.2     1  UNL1        0.0000
     21 C           6.9322    1.2068    1.8955 C.2     1  UNL1        0.0000
     22 SI          5.0187    1.1609    2.0226 Si      1  UNL1        0.0000
     23 C           4.9823    0.4186    0.2907 C.ar    1  UNL1        0.0000
     24 C           1.8407   -1.1403   -0.1144 C.ar    1  UNL1        0.0000
     25 C           2.3128   -2.3829    0.2212 C.ar    1  UNL1        0.0000
     26 O           1.2762   -3.1673    0.6324 O.2     1  UNL1        0.0000
     27 C           0.1384   -2.4161    0.5504 C.ar    1  UNL1        0.0000
     28 C           0.4148   -1.1758    0.0277 C.ar    1  UNL1        0.0000
     29 C          -0.4753   -0.0745   -0.1866 C.ar    1  UNL1        0.0000
     30 C          -1.9058    0.0358   -0.1530 C.ar    1  UNL1        0.0000
     31 C          -2.8844   -1.0779   -0.2384 C.ar    1  UNL1        0.0000
     32 C          -2.6660   -2.2780   -0.8174 C.2     1  UNL1        0.0000
     33 H          -4.6630   -3.7491   -2.1095 H       1  UNL1        0.0000
     34 H          -4.0208   -4.4920    0.2088 H       1  UNL1        0.0000
     35 H          -6.1723   -1.9978    0.1020 H       1  UNL1        0.0000
     36 H          -6.8057   -0.0016    1.0462 H       1  UNL1        0.0000
     37 H          -7.4552    2.3492    1.4607 H       1  UNL1        0.0000
     38 H          -5.7602    4.1445    1.0863 H       1  UNL1        0.0000
     39 H           0.1520    3.2427   -0.6536 H       1  UNL1        0.0000
     40 H           2.2480    2.0631   -0.8063 H       1  UNL1        0.0000
     41 H           7.2415   -0.4703   -2.0380 H       1  UNL1        0.0000
     42 H           8.4064    0.6564    0.4367 H       1  UNL1        0.0000
     43 H           7.5300    1.5868    2.7081 H       1  UNL1        0.0000
     44 H           4.5871    0.2289    3.0934 H       1  UNL1        0.0000
     45 H           4.4624    2.5349    2.0982 H       1  UNL1        0.0000
     46 H           3.2913   -2.8411    0.2653 H       1  UNL1        0.0000
     47 H          -0.7476   -2.9100    0.9208 H       1  UNL1        0.0000
     48 H          -1.7694   -2.6342   -1.2981 H       1  UNL1        0.0000
@<TRIPOS>BOND
     1     1     2    1
     2     2     3    2
     3     3     4   ar
     4     4     5   ar
     5     5     6   ar
     6     6     7   ar
     7     7     8   ar
     8     8     9   ar
     9     9    10   ar
    10    10    11   ar
    11    11    12   ar
    12    12    13   ar
    13    13    14   ar
    14    14    15   ar
    15    15    16    1
    16    16    17   ar
    17    17    18   ar
    18    18    19   ar
    19    19    20    1
    20    20    21    2
    21    21    22    1
    22    22    23    1
    23    15    24   ar
    24    24    25   ar
    25    25    26   ar
    26    26    27   ar
    27    27    28   ar
    28    28    29   ar
    29    29    30   ar
    30    30    31   ar
    31    31    32    2
    32    32     1    1
    33    31     3   ar
    34     9     4   ar
    35    30    10   ar
    36    29    13   ar
    37    23    16   ar
    38    28    24   ar
    39    23    19   ar
    40     1    33    1
    41     1    34    1
    42     2    35    1
    43     5    36    1
    44     6    37    1
    45     7    38    1
    46    12    39    1
    47    14    40    1
    48    18    41    1
    49    20    42    1
    50    21    43    1
    51    22    44    1
    52    22    45    1
    53    25    46    1
    54    27    47    1
    55    32    48    1
