@<TRIPOS>MOLECULE
*****
 39 44 0 0 0
SMALL
GASTEIGER

@<TRIPOS>ATOM
      1 C          -5.1265    1.4929    0.4117 C.3     1  UNL1        0.0000
      2 C          -6.6401    1.6800    0.5748 C.2     1  UNL1        0.0000
      3 C          -7.2947    0.4994    0.4867 C.2     1  UNL1        0.0000
      4 C          -6.3548   -0.5367    0.2673 C.ar    1  UNL1        0.0000
      5 C          -6.4052   -1.8857    0.1086 C.ar    1  UNL1        0.0000
      6 S          -4.8035   -2.4921   -0.1042 S.2     1  UNL1        0.0000
      7 C          -4.0717   -0.9200   -0.0142 C.ar    1  UNL1        0.0000
      8 C          -5.0555    0.0152    0.2116 C.ar    1  UNL1        0.0000
      9 C          -2.6312   -0.7168   -0.1119 C.ar    1  UNL1        0.0000
     10 N          -2.1264    0.3804    0.5390 N.ar    1  UNL1        0.0000
     11 C          -0.7858    0.6662    0.5135 C.ar    1  UNL1        0.0000
     12 C           0.2308   -0.0489   -0.1244 C.ar    1  UNL1        0.0000
     13 C           1.6198    0.3802   -0.0670 C.ar    1  UNL1        0.0000
     14 N           1.9739    1.6428    0.0583 N.ar    1  UNL1        0.0000
     15 C           3.3500    1.7444    0.1215 C.ar    1  UNL1        0.0000
     16 C           4.0718    0.5599    0.0756 C.ar    1  UNL1        0.0000
     17 S           2.9286   -0.7301   -0.0363 S.2     1  UNL1        0.0000
     18 C           5.4750    0.3502    0.1326 C.2     1  UNL1        0.0000
     19 SI          6.3933   -1.1529   -0.5640 Si      1  UNL1        0.0000
     20 C           7.9934   -0.3472    0.0071 C.2     1  UNL1        0.0000
     21 C           7.7552    0.8362    0.5993 C.2     1  UNL1        0.0000
     22 C           6.3541    1.2276    0.6647 C.2     1  UNL1        0.0000
     23 C          -0.2435   -1.1667   -0.8536 C.ar    1  UNL1        0.0000
     24 N           0.4802   -2.0085   -1.6150 N.ar    1  UNL1        0.0000
     25 S          -0.5601   -3.1230   -2.2521 S.2     1  UNL1        0.0000
     26 N          -1.9897   -2.6003   -1.6143 N.ar    1  UNL1        0.0000
     27 C          -1.7247   -1.5218   -0.8538 C.ar    1  UNL1        0.0000
     28 H          -4.6001    1.8098    1.3162 H       1  UNL1        0.0000
     29 H          -4.7596    2.0408   -0.4606 H       1  UNL1        0.0000
     30 H          -7.1047    2.6403    0.7411 H       1  UNL1        0.0000
     31 H          -8.3630    0.3590    0.5697 H       1  UNL1        0.0000
     32 H          -7.2571   -2.5504    0.1116 H       1  UNL1        0.0000
     33 H          -0.5313    1.5668    1.0765 H       1  UNL1        0.0000
     34 H           3.7893    2.7320    0.2006 H       1  UNL1        0.0000
     35 H           6.1201   -2.4063    0.1832 H       1  UNL1        0.0000
     36 H           6.3245   -1.2420   -2.0441 H       1  UNL1        0.0000
     37 H           8.9513   -0.8191   -0.1443 H       1  UNL1        0.0000
     38 H           8.5310    1.4736    1.0062 H       1  UNL1        0.0000
     39 H           6.0871    2.1710    1.1261 H       1  UNL1        0.0000
@<TRIPOS>BOND
     1     1     2    1
     2     2     3    2
     3     3     4    1
     4     4     5   ar
     5     5     6   ar
     6     6     7   ar
     7     7     8   ar
     8     7     9    1
     9     9    10   ar
    10    10    11   ar
    11    11    12   ar
    12    12    13    1
    13    13    14   ar
    14    14    15   ar
    15    15    16   ar
    16    16    17   ar
    17    16    18    1
    18    18    19    1
    19    19    20    1
    20    20    21    2
    21    21    22    1
    22    12    23   ar
    23    23    24   ar
    24    24    25   ar
    25    25    26   ar
    26    26    27   ar
    27     8     1    1
    28    27     9   ar
    29     8     4   ar
    30    17    13   ar
    31    22    18    2
    32    27    23   ar
    33     1    28    1
    34     1    29    1
    35     2    30    1
    36     3    31    1
    37     5    32    1
    38    11    33    1
    39    15    34    1
    40    19    35    1
    41    19    36    1
    42    20    37    1
    43    21    38    1
    44    22    39    1
