@<TRIPOS>MOLECULE
*****
 43 49 0 0 0
SMALL
GASTEIGER

@<TRIPOS>ATOM
      1 C           4.8309    0.3304    2.4617 C.3     1  UNL1        0.0000
      2 C           6.2272    0.4485    3.0854 C.2     1  UNL1        0.0000
      3 C           7.1874    0.5112    2.1346 C.2     1  UNL1        0.0000
      4 C           6.5802    0.4439    0.8571 C.ar    1  UNL1        0.0000
      5 C           7.0093    0.4664   -0.4324 C.ar    1  UNL1        0.0000
      6 S           5.6467    0.3558   -1.4856 S.2     1  UNL1        0.0000
      7 C           4.5026    0.2443   -0.1841 C.ar    1  UNL1        0.0000
      8 C           5.1803    0.3309    1.0105 C.ar    1  UNL1        0.0000
      9 C           3.0655    0.1373   -0.4072 C.ar    1  UNL1        0.0000
     10 N           2.2571    0.6341    0.5879 N.ar    1  UNL1        0.0000
     11 C           0.8919    0.5898    0.4839 C.ar    1  UNL1        0.0000
     12 C           0.1406    0.0573   -0.5626 C.ar    1  UNL1        0.0000
     13 C          -1.2987    0.0517   -0.6070 C.ar    1  UNL1        0.0000
     14 S          -2.2904   -0.7325    0.5634 S.2     1  UNL1        0.0000
     15 C          -3.8022   -0.2768   -0.2178 C.ar    1  UNL1        0.0000
     16 C          -5.0646   -0.6752    0.2837 C.2     1  UNL1        0.0000
     17 SI         -5.5256   -0.7768    2.1116 Si      1  UNL1        0.0000
     18 C          -7.2504   -1.2964    1.5684 C.2     1  UNL1        0.0000
     19 C          -7.3405   -1.3482    0.2274 C.2     1  UNL1        0.0000
     20 C          -6.1232   -0.9966   -0.4901 C.2     1  UNL1        0.0000
     21 C          -3.4506    0.4549   -1.3088 C.ar    1  UNL1        0.0000
     22 C          -4.0430    1.1614   -2.3734 C.ar    1  UNL1        0.0000
     23 C          -2.9718    1.6921   -3.1026 C.ar    1  UNL1        0.0000
     24 O          -1.7279    1.3868   -2.5842 O.2     1  UNL1        0.0000
     25 C          -2.1039    0.6337   -1.5131 C.ar    1  UNL1        0.0000
     26 C           0.9239   -0.5044   -1.6006 C.ar    1  UNL1        0.0000
     27 N           0.4694   -1.1243   -2.7056 N.ar    1  UNL1        0.0000
     28 S           1.7922   -1.5935   -3.5790 S.2     1  UNL1        0.0000
     29 N           3.0107   -1.0690   -2.5929 N.ar    1  UNL1        0.0000
     30 C           2.4399   -0.4696   -1.5309 C.ar    1  UNL1        0.0000
     31 H           4.2137    1.1908    2.7351 H       1  UNL1        0.0000
     32 H           4.3482   -0.6028    2.7649 H       1  UNL1        0.0000
     33 H           6.4010    0.4791    4.1505 H       1  UNL1        0.0000
     34 H           8.2499    0.5991    2.3110 H       1  UNL1        0.0000
     35 H           8.0125    0.5478   -0.8255 H       1  UNL1        0.0000
     36 H           0.3849    1.0411    1.3374 H       1  UNL1        0.0000
     37 H          -4.8302   -1.8682    2.8392 H       1  UNL1        0.0000
     38 H          -5.5360    0.5476    2.7827 H       1  UNL1        0.0000
     39 H          -8.0275   -1.5169    2.2830 H       1  UNL1        0.0000
     40 H          -8.2405   -1.6280   -0.3067 H       1  UNL1        0.0000
     41 H          -6.1124   -1.0140   -1.5734 H       1  UNL1        0.0000
     42 H          -5.0912    1.2912   -2.6000 H       1  UNL1        0.0000
     43 H          -2.9354    2.3020   -3.9960 H       1  UNL1        0.0000
@<TRIPOS>BOND
     1     1     2    1
     2     2     3    2
     3     3     4    1
     4     4     5   ar
     5     5     6   ar
     6     6     7   ar
     7     7     8   ar
     8     7     9    1
     9     9    10   ar
    10    10    11   ar
    11    11    12   ar
    12    12    13    1
    13    13    14   ar
    14    14    15   ar
    15    15    16    1
    16    16    17    1
    17    17    18    1
    18    18    19    2
    19    19    20    1
    20    15    21   ar
    21    21    22   ar
    22    22    23   ar
    23    23    24   ar
    24    24    25   ar
    25    12    26   ar
    26    26    27   ar
    27    27    28   ar
    28    28    29   ar
    29    29    30   ar
    30     8     1    1
    31    30     9   ar
    32     8     4   ar
    33    25    13   ar
    34    30    26   ar
    35    20    16    2
    36    25    21   ar
    37     1    31    1
    38     1    32    1
    39     2    33    1
    40     3    34    1
    41     5    35    1
    42    11    36    1
    43    17    37    1
    44    17    38    1
    45    18    39    1
    46    19    40    1
    47    20    41    1
    48    22    42    1
    49    23    43    1
