@<TRIPOS>MOLECULE
*****
 41 47 0 0 0
SMALL
GASTEIGER

@<TRIPOS>ATOM
      1 C          -6.1589   -0.8817    0.4749 C.3     1  UNL1       -0.0075
      2 C          -7.6791   -0.6837    0.4149 C.2     1  UNL1       -0.0791
      3 C          -7.9993    0.5278   -0.0950 C.2     1  UNL1       -0.0574
      4 C          -6.8092    1.2271   -0.4112 C.ar    1  UNL1       -0.0142
      5 C          -6.4977    2.4435   -0.9327 C.ar    1  UNL1       -0.0163
      6 S          -4.7802    2.5991   -1.0261 S.2     1  UNL1       -0.0937
      7 C          -4.4888    1.0212   -0.3600 C.ar    1  UNL1        0.0483
      8 C          -5.6949    0.4212   -0.0865 C.ar    1  UNL1       -0.0197
      9 C          -3.1762    0.4606   -0.1430 C.ar    1  UNL1        0.1156
     10 N          -3.0248   -0.7529    0.3498 N.ar    1  UNL1       -0.2462
     11 C          -1.6805   -1.0516    0.4677 C.ar    1  UNL1        0.0433
     12 C          -0.7965   -0.0736    0.0487 C.ar    1  UNL1        0.0415
     13 S          -1.7071    1.2817   -0.4920 S.2     1  UNL1       -0.0666
     14 C           0.6649   -0.0587    0.0304 C.ar    1  UNL1        0.0184
     15 C           1.4302    0.5457   -0.9897 C.ar    1  UNL1       -0.0507
     16 C           2.8460    0.5553   -1.0069 C.ar    1  UNL1       -0.0511
     17 C           3.6560   -0.0377   -0.0106 C.ar    1  UNL1        0.0139
     18 C           5.1141   -0.0201   -0.0415 C.ar    1  UNL1        0.0305
     19 C           5.9365    0.3446    1.0376 C.ar    1  UNL1        0.0375
     20 N           7.3104    0.3995    1.0838 N.ar    1  UNL1       -0.2604
     21 C           8.0560    0.0605   -0.0052 C.ar    1  UNL1        0.0557
     22 C           7.3777   -0.3379   -1.1721 C.ar    1  UNL1        0.1185
     23 N           7.9393   -0.7053   -2.3351 N.ar    1  UNL1       -0.1892
     24 S           6.6913   -1.0825   -3.3599 S.2     1  UNL1        0.1165
     25 N           5.3865   -0.7818   -2.3818 N.ar    1  UNL1       -0.1901
     26 C           5.8693   -0.3776   -1.1909 C.ar    1  UNL1        0.1105
     27 C           2.9355   -0.6678    1.0483 C.ar    1  UNL1        0.1083
     28 N           3.4724   -1.3019    2.1064 N.ar    1  UNL1       -0.1901
     29 S           2.2189   -1.8544    3.0338 S.2     1  UNL1        0.1165
     30 N           0.9270   -1.3214    2.1498 N.ar    1  UNL1       -0.1901
     31 C           1.4148   -0.6826    1.0704 C.ar    1  UNL1        0.1087
     32 H          -5.8279   -1.0234    1.5074 H       1  UNL1        0.0356
     33 H          -5.8544   -1.7273   -0.1481 H       1  UNL1        0.0356
     34 H          -8.3871   -1.4298    0.7437 H       1  UNL1        0.0575
     35 H          -8.9998    0.9094   -0.2410 H       1  UNL1        0.0621
     36 H          -7.1488    3.2411   -1.2609 H       1  UNL1        0.0699
     37 H          -1.3985   -2.0193    0.8665 H       1  UNL1        0.0841
     38 H           0.9214    1.0264   -1.8272 H       1  UNL1        0.0625
     39 H           3.3292    1.0541   -1.8505 H       1  UNL1        0.0624
     40 H           5.4792    0.6403    1.9838 H       1  UNL1        0.0836
     41 H           9.1330    0.1138    0.0806 H       1  UNL1        0.0852
@<TRIPOS>BOND
     1     1     2    1
     2     2     3    2
     3     3     4    1
     4     4     5   ar
     5     5     6   ar
     6     6     7   ar
     7     7     8   ar
     8     7     9    1
     9     9    10   ar
    10    10    11   ar
    11    11    12   ar
    12    12    13   ar
    13    12    14    1
    14    14    15   ar
    15    15    16   ar
    16    16    17   ar
    17    17    18    1
    18    18    19   ar
    19    19    20   ar
    20    20    21   ar
    21    21    22   ar
    22    22    23   ar
    23    23    24   ar
    24    24    25   ar
    25    25    26   ar
    26    17    27   ar
    27    27    28   ar
    28    28    29   ar
    29    29    30   ar
    30    30    31   ar
    31     8     1    1
    32    13     9   ar
    33    31    14   ar
    34     8     4   ar
    35    26    18   ar
    36    31    27   ar
    37    26    22   ar
    38     1    32    1
    39     1    33    1
    40     2    34    1
    41     3    35    1
    42     5    36    1
    43    11    37    1
    44    15    38    1
    45    16    39    1
    46    19    40    1
    47    21    41    1
