@<TRIPOS>MOLECULE
*****
 41 46 0 0 0
SMALL
GASTEIGER

@<TRIPOS>ATOM
      1 C           4.2201   -1.7086    1.4165 C.3     1  UNL1        0.0000
      2 C           5.5434   -2.4160    1.7307 C.2     1  UNL1        0.0000
      3 C           6.4082   -2.3255    0.6946 C.2     1  UNL1        0.0000
      4 C           5.8002   -1.5942   -0.3548 C.ar    1  UNL1        0.0000
      5 C           6.1639   -1.1908   -1.6021 C.ar    1  UNL1        0.0000
      6 S           4.8612   -0.3109   -2.3188 S.2     1  UNL1        0.0000
      7 C           3.8454   -0.4797   -0.9239 C.ar    1  UNL1        0.0000
      8 C           4.4972   -1.2094    0.0381 C.ar    1  UNL1        0.0000
      9 C           2.5218    0.0628   -0.8801 C.ar    1  UNL1        0.0000
     10 S           1.1346   -0.9041   -0.5617 S.2     1  UNL1        0.0000
     11 C           0.0249    0.4242   -0.6887 C.ar    1  UNL1        0.0000
     12 C          -1.3705    0.2468   -0.5462 C.2     1  UNL1        0.0000
     13 SI         -2.1918   -0.6499    0.8950 Si      1  UNL1        0.0000
     14 C          -3.8662   -0.2283    0.0965 C.2     1  UNL1        0.0000
     15 C          -3.6812    0.4606   -1.0491 C.2     1  UNL1        0.0000
     16 C          -2.2926    0.7343   -1.4009 C.2     1  UNL1        0.0000
     17 C          -5.1061   -0.6287    0.6412 C.ar    1  UNL1        0.0000
     18 C          -5.5057   -1.6851    1.4418 C.ar    1  UNL1        0.0000
     19 C          -6.8950   -1.5555    1.6839 C.ar    1  UNL1        0.0000
     20 C          -7.3161   -0.4199    1.0341 C.ar    1  UNL1        0.0000
     21 N          -6.2301    0.1342    0.4078 N.ar    1  UNL1        0.0000
     22 C           0.7756    1.5280   -0.9523 C.ar    1  UNL1        0.0000
     23 C           0.4526    2.9007   -1.1307 C.ar    1  UNL1        0.0000
     24 C           1.5784    3.6970   -1.3618 C.ar    1  UNL1        0.0000
     25 S           3.1257    2.8696   -1.3748 S.2     1  UNL1        0.0000
     26 C           2.1597    1.3703   -1.0580 C.ar    1  UNL1        0.0000
     27 H           3.3903   -2.4203    1.4363 H       1  UNL1        0.0000
     28 H           4.0414   -0.8893    2.1183 H       1  UNL1        0.0000
     29 H           5.7414   -2.9187    2.6656 H       1  UNL1        0.0000
     30 H           7.4058   -2.7400    0.6630 H       1  UNL1        0.0000
     31 H           7.0888   -1.3500   -2.1376 H       1  UNL1        0.0000
     32 H          -1.9857    0.0548    2.1883 H       1  UNL1        0.0000
     33 H          -1.9214   -2.1123    0.9069 H       1  UNL1        0.0000
     34 H          -4.4719    0.7892   -1.7120 H       1  UNL1        0.0000
     35 H          -2.0592    1.2860   -2.3042 H       1  UNL1        0.0000
     36 H          -4.8709   -2.4805    1.8111 H       1  UNL1        0.0000
     37 H          -7.5176   -2.2192    2.2697 H       1  UNL1        0.0000
     38 H          -8.2911    0.0429    0.9633 H       1  UNL1        0.0000
     39 H          -6.2507    0.9897   -0.1299 H       1  UNL1        0.0000
     40 H          -0.5480    3.3134   -1.0892 H       1  UNL1        0.0000
     41 H           1.5914    4.7660   -1.5261 H       1  UNL1        0.0000
@<TRIPOS>BOND
     1     1     2    1
     2     2     3    2
     3     3     4    1
     4     4     5   ar
     5     5     6   ar
     6     6     7   ar
     7     7     8   ar
     8     7     9    1
     9     9    10   ar
    10    10    11   ar
    11    11    12    1
    12    12    13    1
    13    13    14    1
    14    14    15    2
    15    15    16    1
    16    14    17    1
    17    17    18   ar
    18    18    19   ar
    19    19    20   ar
    20    20    21   ar
    21    11    22   ar
    22    22    23   ar
    23    23    24   ar
    24    24    25   ar
    25    25    26   ar
    26     8     1    1
    27    26     9   ar
    28     8     4   ar
    29    16    12    2
    30    21    17   ar
    31    26    22   ar
    32     1    27    1
    33     1    28    1
    34     2    29    1
    35     3    30    1
    36     5    31    1
    37    13    32    1
    38    13    33    1
    39    15    34    1
    40    16    35    1
    41    18    36    1
    42    19    37    1
    43    20    38    1
    44    21    39    1
    45    23    40    1
    46    24    41    1
