@<TRIPOS>MOLECULE
*****
 46 52 0 0 0
SMALL
GASTEIGER

@<TRIPOS>ATOM
      1 C           5.0537   -1.3089   -1.2704 C.3     1  UNL1       -0.0075
      2 C           6.5302   -1.6062   -1.5508 C.2     1  UNL1       -0.0791
      3 C           7.3227   -1.1191   -0.5708 C.2     1  UNL1       -0.0574
      4 C           6.5163   -0.4858    0.4056 C.ar    1  UNL1       -0.0142
      5 C           6.7486    0.1623    1.5763 C.ar    1  UNL1       -0.0163
      6 S           5.2490    0.6809    2.2400 S.2     1  UNL1       -0.0952
      7 C           4.2990    0.0220    0.9341 C.ar    1  UNL1        0.0302
      8 C           5.1527   -0.5743    0.0298 C.ar    1  UNL1       -0.0212
      9 C           2.8537    0.1404    0.9070 C.ar    1  UNL1        0.0308
     10 S           1.9123   -0.5109   -0.3931 S.2     1  UNL1       -0.0871
     11 C           0.3771   -0.0049    0.2477 C.ar    1  UNL1        0.0237
     12 C          -0.8644   -0.2650   -0.4123 C.2     1  UNL1       -0.0287
     13 C          -2.2632    0.1165    0.0306 C.3     1  UNL1       -0.0007
     14 C          -3.1483   -0.4265   -1.0690 C.2     1  UNL1       -0.0338
     15 C          -2.3583   -1.0179   -1.9802 C.2     1  UNL1       -0.0573
     16 C          -0.9762   -0.9201   -1.5827 C.2     1  UNL1       -0.0569
     17 C          -4.6100   -0.2775   -1.0455 C.ar    1  UNL1        0.0066
     18 C          -5.2862    0.3840    0.0126 C.ar    1  UNL1       -0.0521
     19 C          -6.6901    0.5547    0.0839 C.ar    1  UNL1       -0.0590
     20 C          -7.5665    0.0798   -0.8992 C.ar    1  UNL1       -0.0335
     21 C          -6.9702   -0.5927   -1.9898 C.ar    1  UNL1        0.1005
     22 N          -7.6410   -1.1173   -3.0268 N.ar    1  UNL1       -0.1908
     23 S          -6.5055   -1.7890   -4.0279 S.2     1  UNL1        0.1165
     24 N          -5.1170   -1.4470   -3.1958 N.ar    1  UNL1       -0.1902
     25 C          -5.4647   -0.7823   -2.0779 C.ar    1  UNL1        0.1072
     26 C           0.6322    0.6427    1.4294 C.ar    1  UNL1       -0.0067
     27 C          -0.1575    1.2811    2.4248 C.2     1  UNL1       -0.0568
     28 C           0.6426    1.7613    3.4008 C.2     1  UNL1       -0.0791
     29 C           2.1110    1.4601    3.1095 C.3     1  UNL1       -0.0075
     30 C           1.9996    0.7313    1.8081 C.ar    1  UNL1       -0.0206
     31 H           4.6357   -0.6831   -2.0639 H       1  UNL1        0.0356
     32 H           4.4911   -2.2415   -1.1724 H       1  UNL1        0.0356
     33 H           6.8738   -2.1383   -2.4252 H       1  UNL1        0.0575
     34 H           8.4000   -1.1956   -0.5299 H       1  UNL1        0.0621
     35 H           7.6837    0.3632    2.0791 H       1  UNL1        0.0699
     36 H          -2.3560    1.2056    0.1077 H       1  UNL1        0.0362
     37 H          -2.5003   -0.3513    0.9927 H       1  UNL1        0.0362
     38 H          -2.6553   -1.5099   -2.8939 H       1  UNL1        0.0621
     39 H          -0.1827   -1.3364   -2.1855 H       1  UNL1        0.0621
     40 H          -4.7081    0.7981    0.8393 H       1  UNL1        0.0624
     41 H          -7.1074    1.0801    0.9437 H       1  UNL1        0.0618
     42 H          -8.6393    0.2157   -0.8349 H       1  UNL1        0.0640
     43 H          -1.2332    1.3705    2.4068 H       1  UNL1        0.0621
     44 H           0.3071    2.2914    4.2796 H       1  UNL1        0.0575
     45 H           2.5325    0.8299    3.8975 H       1  UNL1        0.0356
     46 H           2.6767    2.3908    3.0111 H       1  UNL1        0.0356
@<TRIPOS>BOND
     1     1     2    1
     2     2     3    2
     3     3     4    1
     4     4     5   ar
     5     5     6   ar
     6     6     7   ar
     7     7     8   ar
     8     7     9    1
     9     9    10   ar
    10    10    11   ar
    11    11    12    1
    12    12    13    1
    13    13    14    1
    14    14    15    2
    15    15    16    1
    16    14    17    1
    17    17    18   ar
    18    18    19   ar
    19    19    20   ar
    20    20    21   ar
    21    21    22   ar
    22    22    23   ar
    23    23    24   ar
    24    24    25   ar
    25    11    26   ar
    26    26    27    1
    27    27    28    2
    28    28    29    1
    29    29    30    1
    30     8     1    1
    31    30     9   ar
    32     8     4   ar
    33    16    12    2
    34    25    17   ar
    35    30    26   ar
    36    25    21   ar
    37     1    31    1
    38     1    32    1
    39     2    33    1
    40     3    34    1
    41     5    35    1
    42    13    36    1
    43    13    37    1
    44    15    38    1
    45    16    39    1
    46    18    40    1
    47    19    41    1
    48    20    42    1
    49    27    43    1
    50    28    44    1
    51    29    45    1
    52    29    46    1
