@<TRIPOS>MOLECULE
*****
 48 54 0 0 0
SMALL
GASTEIGER

@<TRIPOS>ATOM
      1 C           4.8833    2.0831    1.1567 C.3     1  UNL1       -0.0075
      2 C           6.1851    2.6036    1.7760 C.2     1  UNL1       -0.0791
      3 C           7.0433    1.5922    2.0393 C.2     1  UNL1       -0.0574
      4 C           6.4512    0.3671    1.6467 C.ar    1  UNL1       -0.0142
      5 C           6.8223   -0.9413    1.6571 C.ar    1  UNL1       -0.0163
      6 S           5.5498   -1.8993    0.9910 S.2     1  UNL1       -0.0952
      7 C           4.5302   -0.5261    0.6930 C.ar    1  UNL1        0.0321
      8 C           5.1636    0.6173    1.1159 C.ar    1  UNL1       -0.0212
      9 C           3.2221   -0.6703    0.1084 C.ar    1  UNL1        0.0542
     10 S           1.8574    0.0989    0.8263 S.2     1  UNL1       -0.0833
     11 C           0.7582   -0.5286   -0.3354 C.ar    1  UNL1        0.0480
     12 C          -0.6529   -0.1990   -0.2213 C.ar    1  UNL1       -0.0009
     13 C          -1.1646    1.1114   -0.3731 C.ar    1  UNL1       -0.0523
     14 C          -2.5521    1.4411   -0.2627 C.ar    1  UNL1       -0.0528
     15 C          -3.5776    0.5014    0.0160 C.ar    1  UNL1       -0.0096
     16 C          -4.9845    0.8644    0.1325 C.ar    1  UNL1       -0.0173
     17 C          -5.6298    0.8627    1.3790 C.ar    1  UNL1       -0.0540
     18 C          -6.9763    1.2178    1.4885 C.ar    1  UNL1       -0.0612
     19 C          -7.6952    1.5830    0.3526 C.ar    1  UNL1       -0.0617
     20 C          -7.0689    1.5952   -0.8918 C.ar    1  UNL1       -0.0612
     21 C          -5.7221    1.2403   -1.0003 C.ar    1  UNL1       -0.0540
     22 C          -3.0675   -0.8038    0.1631 C.ar    1  UNL1       -0.0026
     23 C          -3.8458   -1.9112    0.4144 C.ar    1  UNL1       -0.0160
     24 S          -2.9029   -3.3390    0.5447 S.2     1  UNL1       -0.1038
     25 C          -1.4416   -2.4879    0.2485 C.ar    1  UNL1       -0.0160
     26 C          -1.6607   -1.1437    0.0478 C.ar    1  UNL1       -0.0020
     27 C           1.4205   -1.2971   -1.2663 C.ar    1  UNL1        0.1045
     28 N           0.7971   -1.9075   -2.3165 N.ar    1  UNL1       -0.2508
     29 C           1.6850   -2.5944   -3.0824 C.ar    1  UNL1        0.0464
     30 C           3.0599   -2.6725   -2.8436 C.ar    1  UNL1        0.0464
     31 N           3.7089   -2.0744   -1.8105 N.ar    1  UNL1       -0.2507
     32 C           2.8430   -1.3799   -1.0130 C.ar    1  UNL1        0.1050
     33 H           4.0329    2.3216    1.8011 H       1  UNL1        0.0356
     34 H           4.7365    2.4977    0.1556 H       1  UNL1        0.0356
     35 H           6.3745    3.6485    1.9718 H       1  UNL1        0.0575
     36 H           8.0268    1.6922    2.4761 H       1  UNL1        0.0621
     37 H           7.7390   -1.3969    2.0027 H       1  UNL1        0.0699
     38 H          -0.4717    1.9244   -0.5933 H       1  UNL1        0.0624
     39 H          -2.8325    2.4876   -0.3963 H       1  UNL1        0.0624
     40 H          -5.0802    0.5852    2.2765 H       1  UNL1        0.0624
     41 H          -7.4616    1.2104    2.4610 H       1  UNL1        0.0618
     42 H          -8.7430    1.8591    0.4371 H       1  UNL1        0.0618
     43 H          -7.6277    1.8796   -1.7796 H       1  UNL1        0.0618
     44 H          -5.2486    1.2505   -1.9801 H       1  UNL1        0.0624
     45 H          -4.9191   -1.9743    0.5321 H       1  UNL1        0.0700
     46 H          -0.5107   -3.0371    0.2310 H       1  UNL1        0.0700
     47 H           1.2498   -3.1065   -3.9361 H       1  UNL1        0.0845
     48 H           3.6977   -3.2453   -3.5110 H       1  UNL1        0.0845
@<TRIPOS>BOND
     1     1     2    1
     2     2     3    2
     3     3     4    1
     4     4     5   ar
     5     5     6   ar
     6     6     7   ar
     7     7     8   ar
     8     7     9    1
     9     9    10   ar
    10    10    11   ar
    11    11    12    1
    12    12    13   ar
    13    13    14   ar
    14    14    15   ar
    15    15    16    1
    16    16    17   ar
    17    17    18   ar
    18    18    19   ar
    19    19    20   ar
    20    20    21   ar
    21    15    22   ar
    22    22    23   ar
    23    23    24   ar
    24    24    25   ar
    25    25    26   ar
    26    11    27   ar
    27    27    28   ar
    28    28    29   ar
    29    29    30   ar
    30    30    31   ar
    31    31    32   ar
    32     8     1    1
    33    32     9   ar
    34     8     4   ar
    35    26    12   ar
    36    32    27   ar
    37    21    16   ar
    38    26    22   ar
    39     1    33    1
    40     1    34    1
    41     2    35    1
    42     3    36    1
    43     5    37    1
    44    13    38    1
    45    14    39    1
    46    17    40    1
    47    18    41    1
    48    19    42    1
    49    20    43    1
    50    21    44    1
    51    23    45    1
    52    25    46    1
    53    29    47    1
    54    30    48    1
