@<TRIPOS>MOLECULE
*****
 47 53 0 0 0
SMALL
GASTEIGER

@<TRIPOS>ATOM
      1 C          -5.9798    0.2017   -1.3757 C.3     1  UNL1       -0.0075
      2 C          -7.4357   -0.2351   -1.5747 C.2     1  UNL1       -0.0791
      3 C          -7.8625   -1.0087   -0.5504 C.2     1  UNL1       -0.0574
      4 C          -6.8087   -1.1660    0.3825 C.ar    1  UNL1       -0.0142
      5 C          -6.6388   -1.8220    1.5625 C.ar    1  UNL1       -0.0163
      6 S          -5.0273   -1.5637    2.1315 S.2     1  UNL1       -0.0952
      7 C          -4.6008   -0.5745    0.7746 C.ar    1  UNL1        0.0305
      8 C          -5.6730   -0.4564   -0.0724 C.ar    1  UNL1       -0.0212
      9 C          -3.3004    0.0101    0.6408 C.ar    1  UNL1        0.0350
     10 S          -1.8601   -0.9367    0.5993 S.2     1  UNL1       -0.0860
     11 C          -0.8401    0.4347    0.3931 C.ar    1  UNL1        0.0342
     12 C           0.6056    0.3164    0.2671 C.ar    1  UNL1       -0.0102
     13 C           1.3666   -0.2665    1.2872 C.ar    1  UNL1       -0.0529
     14 C           2.7561   -0.3803    1.1642 C.ar    1  UNL1       -0.0534
     15 C           3.4206    0.0803    0.0181 C.ar    1  UNL1       -0.0172
     16 C           2.6528    0.6672   -0.9981 C.ar    1  UNL1       -0.0534
     17 C           1.2631    0.7812   -0.8779 C.ar    1  UNL1       -0.0529
     18 C           4.8668   -0.0279   -0.1114 C.ar    1  UNL1       -0.0072
     19 C           5.7514    1.0723   -0.2890 C.ar    1  UNL1       -0.0533
     20 C           7.1845    0.9613   -0.4132 C.ar    1  UNL1       -0.0605
     21 C           7.8943   -0.2605   -0.3793 C.ar    1  UNL1       -0.0510
     22 C           7.0136   -1.3198   -0.2142 C.ar    1  UNL1        0.0204
     23 C           7.3311   -2.6498   -0.1500 C.ar    1  UNL1        0.0994
     24 O           6.1861   -3.3844   -0.0012 O.2     1  UNL1       -0.4698
     25 C           5.1341   -2.5085    0.0283 C.ar    1  UNL1        0.1000
     26 C           5.5958   -1.2216   -0.0872 C.ar    1  UNL1        0.0275
     27 C          -1.5804    1.5860    0.3648 C.ar    1  UNL1        0.0347
     28 S          -1.1139    3.3264    0.2001 S.2     1  UNL1       -0.0955
     29 C          -2.8346    3.6502    0.3385 C.ar    1  UNL1       -0.0231
     30 C          -3.6647    2.5353    0.4939 C.ar    1  UNL1       -0.0458
     31 C          -2.9433    1.3112    0.5035 C.ar    1  UNL1        0.0051
     32 H          -5.9119    1.2908   -1.3136 H       1  UNL1        0.0356
     33 H          -5.3467   -0.1775   -2.1826 H       1  UNL1        0.0356
     34 H          -8.0294    0.0471   -2.4316 H       1  UNL1        0.0575
     35 H          -8.8463   -1.4454   -0.4525 H       1  UNL1        0.0621
     36 H          -7.3350   -2.4308    2.1214 H       1  UNL1        0.0699
     37 H           0.8872   -0.6295    2.1940 H       1  UNL1        0.0624
     38 H           3.3204   -0.8248    1.9822 H       1  UNL1        0.0624
     39 H           3.1334    1.0324   -1.9039 H       1  UNL1        0.0624
     40 H           0.6999    1.2309   -1.6928 H       1  UNL1        0.0624
     41 H           5.3255    2.0770   -0.3237 H       1  UNL1        0.0624
     42 H           7.7533    1.8837   -0.5402 H       1  UNL1        0.0618
     43 H           8.9678   -0.3335   -0.4757 H       1  UNL1        0.0625
     44 H           8.2475   -3.2205   -0.1954 H       1  UNL1        0.1035
     45 H           4.1581   -2.9617    0.1308 H       1  UNL1        0.1036
     46 H          -3.1437    4.6862    0.3034 H       1  UNL1        0.0694
     47 H          -4.7387    2.6239    0.6050 H       1  UNL1        0.0629
@<TRIPOS>BOND
     1     1     2    1
     2     2     3    2
     3     3     4    1
     4     4     5   ar
     5     5     6   ar
     6     6     7   ar
     7     7     8   ar
     8     7     9    1
     9     9    10   ar
    10    10    11   ar
    11    11    12    1
    12    12    13   ar
    13    13    14   ar
    14    14    15   ar
    15    15    16   ar
    16    16    17   ar
    17    15    18    1
    18    18    19   ar
    19    19    20   ar
    20    20    21   ar
    21    21    22   ar
    22    22    23   ar
    23    23    24   ar
    24    24    25   ar
    25    25    26   ar
    26    11    27   ar
    27    27    28   ar
    28    28    29   ar
    29    29    30   ar
    30    30    31   ar
    31     8     1    1
    32    31     9   ar
    33     8     4   ar
    34    17    12   ar
    35    26    18   ar
    36    31    27   ar
    37    26    22   ar
    38     1    32    1
    39     1    33    1
    40     2    34    1
    41     3    35    1
    42     5    36    1
    43    13    37    1
    44    14    38    1
    45    16    39    1
    46    17    40    1
    47    19    41    1
    48    20    42    1
    49    21    43    1
    50    23    44    1
    51    25    45    1
    52    29    46    1
    53    30    47    1
