@<TRIPOS>MOLECULE
*****
 46 52 0 0 0
SMALL
GASTEIGER

@<TRIPOS>ATOM
      1 C           5.8047    0.8795    1.5899 C.3     1  UNL1        0.0000
      2 C           7.2876    1.2314    1.7564 C.2     1  UNL1        0.0000
      3 C           7.9855    0.9694    0.6274 C.2     1  UNL1        0.0000
      4 C           7.1054    0.4473   -0.3515 C.ar    1  UNL1        0.0000
      5 C           7.2195    0.0131   -1.6357 C.ar    1  UNL1        0.0000
      6 S           5.6699   -0.4997   -2.2049 S.2     1  UNL1        0.0000
      7 C           4.8859   -0.1297   -0.7036 C.ar    1  UNL1        0.0000
      8 C           5.7984    0.3798    0.1843 C.ar    1  UNL1        0.0000
      9 C           3.4816   -0.3268   -0.5171 C.ar    1  UNL1        0.0000
     10 S           2.4118    0.9568   -0.1110 S.2     1  UNL1        0.0000
     11 C           1.0124   -0.0590   -0.1067 C.ar    1  UNL1        0.0000
     12 C          -0.2995    0.4732    0.1572 C.ar    1  UNL1        0.0000
     13 C          -0.6410    1.4406    1.0831 C.ar    1  UNL1        0.0000
     14 C          -2.0334    1.7451    1.0702 C.ar    1  UNL1        0.0000
     15 C          -2.7333    1.0093    0.1316 C.ar    1  UNL1        0.0000
     16 S          -1.6748   -0.0364   -0.7294 S.2     1  UNL1        0.0000
     17 C          -4.1301    1.0423   -0.1782 C.ar    1  UNL1        0.0000
     18 C          -4.5994    2.1529   -0.7992 C.ar    1  UNL1        0.0000
     19 C          -6.0001    2.3242   -1.1805 C.ar    1  UNL1        0.0000
     20 C          -6.9282    1.3813   -0.9362 C.ar    1  UNL1        0.0000
     21 C          -6.5227    0.1634   -0.2668 C.ar    1  UNL1        0.0000
     22 C          -7.3435   -0.8547    0.0509 C.2     1  UNL1        0.0000
     23 SI         -6.3998   -2.2170    0.9179 Si      1  UNL1        0.0000
     24 C          -4.8500   -1.1835    0.7576 C.2     1  UNL1        0.0000
     25 C          -5.1028   -0.0180    0.1261 C.ar    1  UNL1        0.0000
     26 C           1.4297   -1.3237   -0.3772 C.ar    1  UNL1        0.0000
     27 C           0.7801   -2.5874   -0.4618 C.ar    1  UNL1        0.0000
     28 C           1.6598   -3.6349   -0.7514 C.ar    1  UNL1        0.0000
     29 S           3.3482   -3.2027   -0.9391 S.2     1  UNL1        0.0000
     30 C           2.7976   -1.5093   -0.6064 C.ar    1  UNL1        0.0000
     31 H           5.1816    1.7698    1.7118 H       1  UNL1        0.0000
     32 H           5.5086    0.1008    2.2979 H       1  UNL1        0.0000
     33 H           7.7046    1.6348    2.6673 H       1  UNL1        0.0000
     34 H           9.0453    1.1282    0.4855 H       1  UNL1        0.0000
     35 H           8.0908   -0.0394   -2.2724 H       1  UNL1        0.0000
     36 H           0.0711    1.9110    1.7508 H       1  UNL1        0.0000
     37 H          -2.5044    2.4703    1.7233 H       1  UNL1        0.0000
     38 H          -3.9357    2.9747   -1.0578 H       1  UNL1        0.0000
     39 H          -6.2722    3.2500   -1.6791 H       1  UNL1        0.0000
     40 H          -7.9638    1.5168   -1.2258 H       1  UNL1        0.0000
     41 H          -8.4023   -0.9291   -0.1378 H       1  UNL1        0.0000
     42 H          -6.8242   -2.3885    2.3288 H       1  UNL1        0.0000
     43 H          -6.3381   -3.4613    0.1143 H       1  UNL1        0.0000
     44 H          -3.9045   -1.5309    1.1415 H       1  UNL1        0.0000
     45 H          -0.2800   -2.7549   -0.3167 H       1  UNL1        0.0000
     46 H           1.4036   -4.6792   -0.8663 H       1  UNL1        0.0000
@<TRIPOS>BOND
     1     1     2    1
     2     2     3    2
     3     3     4    1
     4     4     5   ar
     5     5     6   ar
     6     6     7   ar
     7     7     8   ar
     8     7     9    1
     9     9    10   ar
    10    10    11   ar
    11    11    12    1
    12    12    13   ar
    13    13    14   ar
    14    14    15   ar
    15    15    16   ar
    16    15    17    1
    17    17    18   ar
    18    18    19   ar
    19    19    20   ar
    20    20    21   ar
    21    21    22    2
    22    22    23    1
    23    23    24    1
    24    24    25    2
    25    11    26   ar
    26    26    27   ar
    27    27    28   ar
    28    28    29   ar
    29    29    30   ar
    30     8     1    1
    31    30     9   ar
    32     8     4   ar
    33    16    12   ar
    34    25    17   ar
    35    30    26   ar
    36    25    21   ar
    37     1    31    1
    38     1    32    1
    39     2    33    1
    40     3    34    1
    41     5    35    1
    42    13    36    1
    43    14    37    1
    44    18    38    1
    45    19    39    1
    46    20    40    1
    47    22    41    1
    48    23    42    1
    49    23    43    1
    50    24    44    1
    51    27    45    1
    52    28    46    1
