@<TRIPOS>MOLECULE
*****
 44 50 0 0 0
SMALL
GASTEIGER

@<TRIPOS>ATOM
      1 C           4.0528   -1.0498   -2.2925 C.3     1  UNL1        0.0000
      2 C           5.3873   -1.1556   -3.0401 C.2     1  UNL1        0.0000
      3 C           6.3946   -0.5975   -2.3308 C.2     1  UNL1        0.0000
      4 C           5.8803   -0.0957   -1.1105 C.ar    1  UNL1        0.0000
      5 C           6.3936    0.5433   -0.0249 C.ar    1  UNL1        0.0000
      6 S           5.1273    0.8430    1.1103 S.2     1  UNL1        0.0000
      7 C           3.9174    0.0966    0.1160 C.ar    1  UNL1        0.0000
      8 C           4.4894   -0.3465   -1.0506 C.ar    1  UNL1        0.0000
      9 C           2.5434    0.0143    0.5274 C.ar    1  UNL1        0.0000
     10 S           1.2661    0.5151   -0.5231 S.2     1  UNL1        0.0000
     11 C           0.0165    0.1330    0.6150 C.ar    1  UNL1        0.0000
     12 C          -1.3607    0.3589    0.2947 C.ar    1  UNL1        0.0000
     13 S          -2.1288   -0.1564   -1.1685 S.2     1  UNL1        0.0000
     14 C          -3.6926    0.4846   -0.7236 C.ar    1  UNL1        0.0000
     15 C          -4.8392    0.3683   -1.5790 C.ar    1  UNL1        0.0000
     16 C          -6.1492    0.7670   -1.3840 C.ar    1  UNL1        0.0000
     17 C          -6.8925    0.4194   -2.5396 C.ar    1  UNL1        0.0000
     18 C          -6.0227   -0.1840   -3.4168 C.ar    1  UNL1        0.0000
     19 N          -4.7862   -0.2105   -2.8284 N.ar    1  UNL1        0.0000
     20 C          -3.5530    1.0553    0.4979 C.ar    1  UNL1        0.0000
     21 C          -4.2965    1.7499    1.4725 C.ar    1  UNL1        0.0000
     22 C          -3.3898    2.0238    2.5025 C.ar    1  UNL1        0.0000
     23 O          -2.1122    1.5567    2.2694 O.2     1  UNL1        0.0000
     24 C          -2.2912    0.9845    1.0442 C.ar    1  UNL1        0.0000
     25 C           0.5748   -0.3773    1.7646 C.ar    1  UNL1        0.0000
     26 C          -0.0269   -0.8719    2.9714 C.2     1  UNL1        0.0000
     27 C           0.8392   -1.3314    3.9000 C.2     1  UNL1        0.0000
     28 SI          2.6442   -1.1722    3.3061 Si      1  UNL1        0.0000
     29 C           1.9985   -0.4306    1.6965 C.ar    1  UNL1        0.0000
     30 H           3.3376   -0.4586   -2.8706 H       1  UNL1        0.0000
     31 H           3.6482   -2.0427   -2.0778 H       1  UNL1        0.0000
     32 H           5.4893   -1.6174   -4.0108 H       1  UNL1        0.0000
     33 H           7.4296   -0.5400   -2.6369 H       1  UNL1        0.0000
     34 H           7.4091    0.8516    0.1787 H       1  UNL1        0.0000
     35 H          -6.5434    1.2574   -0.5047 H       1  UNL1        0.0000
     36 H          -7.9474    0.5919   -2.7103 H       1  UNL1        0.0000
     37 H          -6.1748   -0.5957   -4.4055 H       1  UNL1        0.0000
     38 H          -3.9479   -0.5959   -3.2433 H       1  UNL1        0.0000
     39 H          -5.3385    2.0325    1.4589 H       1  UNL1        0.0000
     40 H          -3.5024    2.5369    3.4488 H       1  UNL1        0.0000
     41 H          -1.1006   -0.8738    3.1216 H       1  UNL1        0.0000
     42 H           0.6064   -1.7414    4.8694 H       1  UNL1        0.0000
     43 H           3.2595   -2.5144    3.1522 H       1  UNL1        0.0000
     44 H           3.3915   -0.2249    4.1702 H       1  UNL1        0.0000
@<TRIPOS>BOND
     1     1     2    1
     2     2     3    2
     3     3     4    1
     4     4     5   ar
     5     5     6   ar
     6     6     7   ar
     7     7     8   ar
     8     7     9    1
     9     9    10   ar
    10    10    11   ar
    11    11    12    1
    12    12    13   ar
    13    13    14   ar
    14    14    15    1
    15    15    16   ar
    16    16    17   ar
    17    17    18   ar
    18    18    19   ar
    19    14    20   ar
    20    20    21   ar
    21    21    22   ar
    22    22    23   ar
    23    23    24   ar
    24    11    25   ar
    25    25    26    1
    26    26    27    2
    27    27    28    1
    28    28    29    1
    29     8     1    1
    30    29     9   ar
    31     8     4   ar
    32    24    12   ar
    33    29    25   ar
    34    19    15   ar
    35    24    20   ar
    36     1    30    1
    37     1    31    1
    38     2    32    1
    39     3    33    1
    40     5    34    1
    41    16    35    1
    42    17    36    1
    43    18    37    1
    44    19    38    1
    45    21    39    1
    46    22    40    1
    47    26    41    1
    48    27    42    1
    49    28    43    1
    50    28    44    1
