@<TRIPOS>MOLECULE
*****
 45 52 0 0 0
SMALL
GASTEIGER

@<TRIPOS>ATOM
      1 C           5.1078    1.8368    0.4510 C.3     1  UNL1       -0.0075
      2 C           6.5564    2.1584    0.8356 C.2     1  UNL1       -0.0791
      3 C           7.1835    1.0742    1.3468 C.2     1  UNL1       -0.0574
      4 C           6.2836   -0.0192    1.3601 C.ar    1  UNL1       -0.0142
      5 C           6.3308   -1.3198    1.7580 C.ar    1  UNL1       -0.0163
      6 S           4.7937   -2.0592    1.4748 S.2     1  UNL1       -0.0952
      7 C           4.1093   -0.6118    0.8174 C.ar    1  UNL1        0.0319
      8 C           5.0403    0.3948    0.8287 C.ar    1  UNL1       -0.0212
      9 C           2.7643   -0.5626    0.3434 C.ar    1  UNL1        0.0506
     10 S           1.3743   -0.8127    1.3382 S.2     1  UNL1       -0.0845
     11 C           0.2387   -0.5312    0.0421 C.ar    1  UNL1        0.0364
     12 C          -1.1820   -0.5832    0.2421 C.ar    1  UNL1        0.0380
     13 S          -2.2912    0.3598   -0.7246 S.2     1  UNL1       -0.0832
     14 C          -3.6990   -0.2316    0.0808 C.ar    1  UNL1        0.0663
     15 C          -5.0538    0.1752   -0.2188 C.ar    1  UNL1        0.0385
     16 C          -6.0021    0.5135    0.7561 C.ar    1  UNL1        0.0381
     17 N          -7.3038    0.9139    0.5655 N.ar    1  UNL1       -0.2604
     18 C          -7.8233    1.0099   -0.6918 C.ar    1  UNL1        0.0557
     19 C          -6.9918    0.6841   -1.7812 C.ar    1  UNL1        0.1185
     20 N          -7.3337    0.7126   -3.0796 N.ar    1  UNL1       -0.1892
     21 S          -5.9932    0.2254   -3.9265 S.2     1  UNL1        0.1165
     22 N          -4.9248   -0.0395   -2.6886 N.ar    1  UNL1       -0.1900
     23 C          -5.5647    0.2511   -1.5399 C.ar    1  UNL1        0.1111
     24 C          -3.2897   -1.0783    1.0456 C.ar    1  UNL1        0.1502
     25 O          -4.0802   -1.7557    1.9255 O.2     1  UNL1       -0.4617
     26 C          -3.1121   -2.4500    2.6242 C.ar    1  UNL1        0.0932
     27 C          -1.8044   -2.2018    2.1910 C.ar    1  UNL1       -0.0150
     28 C          -1.9314   -1.2757    1.1360 C.ar    1  UNL1        0.0361
     29 C           0.9708   -0.2729   -1.0692 C.ar    1  UNL1        0.0156
     30 C           0.8360    0.0184   -2.4553 C.ar    1  UNL1       -0.0355
     31 C           2.1360    0.1399   -2.9896 C.ar    1  UNL1        0.0028
     32 N           3.1097   -0.0645   -2.0171 N.ar    1  UNL1       -0.3597
     33 C           2.3409   -0.2956   -0.9105 C.ar    1  UNL1        0.0626
     34 H           4.9513    1.9886   -0.6202 H       1  UNL1        0.0356
     35 H           4.4075    2.4433    1.0318 H       1  UNL1        0.0356
     36 H           7.0016    3.1346    0.7116 H       1  UNL1        0.0575
     37 H           8.2056    1.0394    1.6970 H       1  UNL1        0.0621
     38 H           7.1450   -1.8799    2.1953 H       1  UNL1        0.0699
     39 H          -5.7243    0.4789    1.8109 H       1  UNL1        0.0836
     40 H          -8.8527    1.3272   -0.7918 H       1  UNL1        0.0852
     41 H          -3.5067   -3.0883    3.4044 H       1  UNL1        0.1030
     42 H          -0.9086   -2.6471    2.5998 H       1  UNL1        0.0655
     43 H          -0.0798    0.1222   -3.0226 H       1  UNL1        0.0639
     44 H           2.4449    0.3494   -4.0059 H       1  UNL1        0.0807
     45 H           4.1212   -0.0670   -2.0804 H       1  UNL1        0.1654
@<TRIPOS>BOND
     1     1     2    1
     2     2     3    2
     3     3     4    1
     4     4     5   ar
     5     5     6   ar
     6     6     7   ar
     7     7     8   ar
     8     7     9    1
     9     9    10   ar
    10    10    11   ar
    11    11    12    1
    12    12    13   ar
    13    13    14   ar
    14    14    15    1
    15    15    16   ar
    16    16    17   ar
    17    17    18   ar
    18    18    19   ar
    19    19    20   ar
    20    20    21   ar
    21    21    22   ar
    22    22    23   ar
    23    14    24   ar
    24    24    25   ar
    25    25    26   ar
    26    26    27   ar
    27    27    28   ar
    28    11    29   ar
    29    29    30   ar
    30    30    31   ar
    31    31    32   ar
    32    32    33   ar
    33     8     1    1
    34    33     9   ar
    35     8     4   ar
    36    28    12   ar
    37    33    29   ar
    38    23    15   ar
    39    28    24   ar
    40    23    19   ar
    41     1    34    1
    42     1    35    1
    43     2    36    1
    44     3    37    1
    45     5    38    1
    46    16    39    1
    47    18    40    1
    48    26    41    1
    49    27    42    1
    50    30    43    1
    51    31    44    1
    52    32    45    1
