@<TRIPOS>MOLECULE
*****
 48 55 0 0 0
SMALL
GASTEIGER

@<TRIPOS>ATOM
      1 SI         -1.6567    4.2819    1.6755 Si      1  UNL1        0.0000
      2 C          -3.1542    3.1758    1.6913 C.2     1  UNL1        0.0000
      3 C          -2.8697    1.9421    1.2213 C.ar    1  UNL1        0.0000
      4 C          -3.8414    0.8380    1.0822 C.ar    1  UNL1        0.0000
      5 C          -5.1039    0.8879    1.6919 C.ar    1  UNL1        0.0000
      6 C          -5.9114   -0.2314    1.6483 C.ar    1  UNL1        0.0000
      7 N          -5.5362   -1.3888    1.0824 N.ar    1  UNL1        0.0000
      8 C          -4.3092   -1.4093    0.5024 C.ar    1  UNL1        0.0000
      9 C          -3.4320   -0.3249    0.3893 C.ar    1  UNL1        0.0000
     10 C          -2.0818   -0.4272   -0.2730 C.ar    1  UNL1        0.0000
     11 C          -1.7543   -1.3932   -1.2785 C.ar    1  UNL1        0.0000
     12 C          -2.7000   -2.1011   -2.0670 C.ar    1  UNL1        0.0000
     13 C          -2.3292   -3.0637   -3.0129 C.ar    1  UNL1        0.0000
     14 C          -0.9895   -3.3449   -3.2272 C.ar    1  UNL1        0.0000
     15 C          -0.0215   -2.6388   -2.5210 C.ar    1  UNL1        0.0000
     16 C          -0.3891   -1.6543   -1.5751 C.ar    1  UNL1        0.0000
     17 C           0.6386   -0.9211   -0.9224 C.ar    1  UNL1        0.0000
     18 C           2.0694   -0.9557   -0.9541 C.ar    1  UNL1        0.0000
     19 C           2.5571    0.0237   -0.1159 C.ar    1  UNL1        0.0000
     20 N           1.4552    0.6619    0.3988 N.ar    1  UNL1        0.0000
     21 C           0.2787    0.1344   -0.0865 C.ar    1  UNL1        0.0000
     22 C          -1.0636    0.4699    0.1638 C.ar    1  UNL1        0.0000
     23 C          -1.4602    1.7430    0.8108 C.ar    1  UNL1        0.0000
     24 C          -0.7010    2.8547    0.9358 C.2     1  UNL1        0.0000
     25 C           3.8959    0.4053    0.2317 C.ar    1  UNL1        0.0000
     26 S           4.2691    1.9693    0.8850 S.2     1  UNL1        0.0000
     27 C           5.9518    1.6411    0.9961 C.ar    1  UNL1        0.0000
     28 C           6.1575    0.3811    0.5566 C.ar    1  UNL1        0.0000
     29 C           7.3241   -0.4103    0.4383 C.ar    1  UNL1        0.0000
     30 C           7.0532   -1.6865   -0.0644 C.ar    1  UNL1        0.0000
     31 S           5.3721   -2.0372   -0.4322 S.2     1  UNL1        0.0000
     32 C           5.0432   -0.3433    0.1257 C.ar    1  UNL1        0.0000
     33 H          -1.7931    5.4195    0.7355 H       1  UNL1        0.0000
     34 H          -1.1837    4.6234    3.0383 H       1  UNL1        0.0000
     35 H          -4.1014    3.5604    2.0307 H       1  UNL1        0.0000
     36 H          -5.4538    1.7642    2.2233 H       1  UNL1        0.0000
     37 H          -6.8951   -0.2333    2.1081 H       1  UNL1        0.0000
     38 H          -4.0365   -2.3998    0.1483 H       1  UNL1        0.0000
     39 H          -3.7620   -1.8769   -1.9942 H       1  UNL1        0.0000
     40 H          -3.0938   -3.5805   -3.5876 H       1  UNL1        0.0000
     41 H          -0.6958   -4.0920   -3.9592 H       1  UNL1        0.0000
     42 H           1.0241   -2.8520   -2.7280 H       1  UNL1        0.0000
     43 H           2.6675   -1.6386   -1.5408 H       1  UNL1        0.0000
     44 H           1.5088    1.3904    1.0942 H       1  UNL1        0.0000
     45 H           0.3069    3.0302    0.6052 H       1  UNL1        0.0000
     46 H           6.6521    2.3736    1.3719 H       1  UNL1        0.0000
     47 H           8.3248   -0.0910    0.7027 H       1  UNL1        0.0000
     48 H           7.7702   -2.4758   -0.2453 H       1  UNL1        0.0000
@<TRIPOS>BOND
     1     1     2    1
     2     2     3    2
     3     3     4   ar
     4     4     5   ar
     5     5     6   ar
     6     6     7   ar
     7     7     8   ar
     8     8     9   ar
     9     9    10   ar
    10    10    11   ar
    11    11    12   ar
    12    12    13   ar
    13    13    14   ar
    14    14    15   ar
    15    15    16   ar
    16    16    17   ar
    17    17    18   ar
    18    18    19   ar
    19    19    20   ar
    20    20    21   ar
    21    21    22   ar
    22    22    23   ar
    23    23    24    2
    24    19    25    1
    25    25    26   ar
    26    26    27   ar
    27    27    28   ar
    28    28    29   ar
    29    29    30   ar
    30    30    31   ar
    31    31    32   ar
    32    24     1    1
    33    32    25   ar
    34    23     3   ar
    35    32    28   ar
    36     9     4   ar
    37    22    10   ar
    38    16    11   ar
    39    21    17   ar
    40     1    33    1
    41     1    34    1
    42     2    35    1
    43     5    36    1
    44     6    37    1
    45     8    38    1
    46    12    39    1
    47    13    40    1
    48    14    41    1
    49    15    42    1
    50    18    43    1
    51    20    44    1
    52    24    45    1
    53    27    46    1
    54    29    47    1
    55    30    48    1
