@<TRIPOS>MOLECULE
*****
 48 55 0 0 0
SMALL
GASTEIGER

@<TRIPOS>ATOM
      1 C          -5.1060   -1.7852   -0.7828 C.3     1  UNL1       -0.0075
      2 C          -6.4959   -2.2428   -1.2388 C.2     1  UNL1       -0.0791
      3 C          -7.4080   -1.2545   -1.1013 C.2     1  UNL1       -0.0574
      4 C          -6.7718   -0.1073   -0.5679 C.ar    1  UNL1       -0.0142
      5 C          -7.1656    1.1453   -0.2162 C.ar    1  UNL1       -0.0163
      6 S          -5.8083    2.0159    0.3936 S.2     1  UNL1       -0.0952
      7 C          -4.7127    0.6825    0.1769 C.ar    1  UNL1        0.0306
      8 C          -5.3980   -0.3813   -0.3625 C.ar    1  UNL1       -0.0212
      9 C          -3.3215    0.7863    0.5315 C.ar    1  UNL1        0.0360
     10 S          -2.0803   -0.1254   -0.2844 S.2     1  UNL1       -0.0845
     11 C          -0.7833    0.5352    0.6577 C.ar    1  UNL1        0.0510
     12 C           0.5901    0.1753    0.4654 C.ar    1  UNL1        0.0377
     13 S           1.9022    1.3179    0.6140 S.2     1  UNL1       -0.0844
     14 C           3.1222    0.1571    0.2261 C.ar    1  UNL1        0.0506
     15 C           4.5139    0.4575    0.1332 C.ar    1  UNL1        0.0319
     16 S           5.4239    0.9996    1.5018 S.2     1  UNL1       -0.0952
     17 C           6.8983    1.0996    0.6040 C.ar    1  UNL1       -0.0163
     18 C           6.6647    0.7321   -0.6855 C.ar    1  UNL1       -0.0142
     19 C           7.4358    0.6238   -1.8684 C.2     1  UNL1       -0.0574
     20 C           6.6384    0.2135   -2.8813 C.2     1  UNL1       -0.0791
     21 C           5.1946    0.0091   -2.4087 C.3     1  UNL1       -0.0075
     22 C           5.3276    0.3682   -0.9666 C.ar    1  UNL1       -0.0212
     23 C           2.5186   -1.0310    0.0090 C.ar    1  UNL1        0.0626
     24 N           3.1110   -2.2234   -0.3009 N.ar    1  UNL1       -0.3597
     25 C           2.0044   -3.0618   -0.3987 C.ar    1  UNL1        0.0028
     26 C           0.8033   -2.3680   -0.1407 C.ar    1  UNL1       -0.0355
     27 C           1.1453   -1.0152    0.1325 C.ar    1  UNL1        0.0156
     28 C          -1.3243    1.3989    1.5477 C.ar    1  UNL1        0.0626
     29 N          -0.6759    2.1298    2.5056 N.ar    1  UNL1       -0.3597
     30 C          -1.7331    2.8026    3.1082 C.ar    1  UNL1        0.0028
     31 C          -2.9660    2.4644    2.5145 C.ar    1  UNL1       -0.0355
     32 C          -2.6965    1.5318    1.4748 C.ar    1  UNL1        0.0156
     33 H          -4.7522   -2.3959    0.0525 H       1  UNL1        0.0356
     34 H          -4.4022   -1.8271   -1.6184 H       1  UNL1        0.0356
     35 H          -6.7003   -3.2316   -1.6213 H       1  UNL1        0.0575
     36 H          -8.4572   -1.3203   -1.3520 H       1  UNL1        0.0621
     37 H          -8.1430    1.6028   -0.2714 H       1  UNL1        0.0699
     38 H           7.8158    1.4220    1.0755 H       1  UNL1        0.0699
     39 H           8.4919    0.8423   -1.9415 H       1  UNL1        0.0621
     40 H           6.9592    0.0510   -3.8998 H       1  UNL1        0.0575
     41 H           4.8882   -1.0313   -2.5461 H       1  UNL1        0.0356
     42 H           4.5138    0.6833   -2.9355 H       1  UNL1        0.0356
     43 H           4.1005   -2.4145   -0.4079 H       1  UNL1        0.1654
     44 H           2.1574   -4.1063   -0.6391 H       1  UNL1        0.0807
     45 H          -0.1843   -2.8102   -0.1464 H       1  UNL1        0.0639
     46 H           0.3199    2.1524    2.6937 H       1  UNL1        0.1654
     47 H          -1.5259    3.4789    3.9277 H       1  UNL1        0.0807
     48 H          -3.9284    2.8541    2.8188 H       1  UNL1        0.0639
@<TRIPOS>BOND
     1     1     2    1
     2     2     3    2
     3     3     4    1
     4     4     5   ar
     5     5     6   ar
     6     6     7   ar
     7     7     8   ar
     8     7     9    1
     9     9    10   ar
    10    10    11   ar
    11    11    12    1
    12    12    13   ar
    13    13    14   ar
    14    14    15    1
    15    15    16   ar
    16    16    17   ar
    17    17    18   ar
    18    18    19    1
    19    19    20    2
    20    20    21    1
    21    21    22    1
    22    14    23   ar
    23    23    24   ar
    24    24    25   ar
    25    25    26   ar
    26    26    27   ar
    27    11    28   ar
    28    28    29   ar
    29    29    30   ar
    30    30    31   ar
    31    31    32   ar
    32     8     1    1
    33    32     9   ar
    34     8     4   ar
    35    27    12   ar
    36    32    28   ar
    37    22    15   ar
    38    27    23   ar
    39    22    18   ar
    40     1    33    1
    41     1    34    1
    42     2    35    1
    43     3    36    1
    44     5    37    1
    45    17    38    1
    46    19    39    1
    47    20    40    1
    48    21    41    1
    49    21    42    1
    50    24    43    1
    51    25    44    1
    52    26    45    1
    53    29    46    1
    54    30    47    1
    55    31    48    1
