@<TRIPOS>MOLECULE
*****
 44 51 0 0 0
SMALL
GASTEIGER

@<TRIPOS>ATOM
      1 C           5.0630   -0.9948   -0.5989 C.3     1  UNL1       -0.0075
      2 C           6.5548   -1.2912   -0.7728 C.2     1  UNL1       -0.0791
      3 C           7.3130   -0.2914   -0.2731 C.2     1  UNL1       -0.0574
      4 C           6.4661    0.7133    0.2533 C.ar    1  UNL1       -0.0142
      5 C           6.6579    1.9104    0.8624 C.ar    1  UNL1       -0.0163
      6 S           5.1301    2.5973    1.2362 S.2     1  UNL1       -0.0952
      7 C           4.2129    1.2721    0.5729 C.ar    1  UNL1        0.0310
      8 C           5.1094    0.3393    0.0825 C.ar    1  UNL1       -0.0212
      9 C           2.7594    1.2258    0.5711 C.ar    1  UNL1        0.0411
     10 S           1.9049   -0.1128   -0.1033 S.2     1  UNL1       -0.0854
     11 C           0.3317    0.5019    0.2363 C.ar    1  UNL1        0.0354
     12 C          -0.8574   -0.2430   -0.1278 C.ar    1  UNL1        0.0380
     13 S          -2.4723    0.3310    0.1909 S.2     1  UNL1       -0.0828
     14 C          -3.2747   -1.0377   -0.4988 C.ar    1  UNL1        0.0700
     15 C          -4.7055   -1.1868   -0.5537 C.ar    1  UNL1        0.0403
     16 S          -5.4969   -2.5854   -1.2588 S.2     1  UNL1       -0.0917
     17 C          -7.0938   -2.0139   -0.9416 C.ar    1  UNL1        0.0192
     18 C          -6.9801   -0.8230   -0.3327 C.ar    1  UNL1        0.1424
     19 O          -8.0116   -0.0401    0.0844 O.2     1  UNL1       -0.4624
     20 C          -7.2998    1.0166    0.6155 C.ar    1  UNL1        0.0932
     21 C          -5.9100    0.8744    0.5216 C.ar    1  UNL1       -0.0150
     22 C          -5.7002   -0.3672   -0.1183 C.ar    1  UNL1        0.0355
     23 C          -2.3056   -1.8697   -0.9402 C.ar    1  UNL1        0.1506
     24 O          -2.4744   -3.0757   -1.5561 O.2     1  UNL1       -0.4617
     25 C          -1.1610   -3.4340   -1.7597 C.ar    1  UNL1        0.0932
     26 C          -0.2368   -2.4963   -1.2928 C.ar    1  UNL1       -0.0150
     27 C          -1.0068   -1.4472   -0.7431 C.ar    1  UNL1        0.0361
     28 C           0.5189    1.7038    0.8504 C.ar    1  UNL1        0.0051
     29 C          -0.3641    2.6967    1.3735 C.ar    1  UNL1       -0.0458
     30 C           0.2925    3.7953    1.9275 C.ar    1  UNL1       -0.0231
     31 S           2.0311    3.7537    1.8802 S.2     1  UNL1       -0.0955
     32 C           1.8440    2.1362    1.0524 C.ar    1  UNL1        0.0352
     33 H           4.5728   -0.9392   -1.5749 H       1  UNL1        0.0356
     34 H           4.5968   -1.7592    0.0290 H       1  UNL1        0.0356
     35 H           6.9340   -2.1890   -1.2376 H       1  UNL1        0.0575
     36 H           8.3933   -0.2548   -0.2706 H       1  UNL1        0.0621
     37 H           7.5785    2.4198    1.1090 H       1  UNL1        0.0699
     38 H          -7.9918   -2.5532   -1.2046 H       1  UNL1        0.0731
     39 H          -7.9213    1.8012    1.0272 H       1  UNL1        0.1030
     40 H          -5.1838    1.5901    0.8775 H       1  UNL1        0.0655
     41 H          -1.0378   -4.3902   -2.2519 H       1  UNL1        0.1030
     42 H           0.8362   -2.5964   -1.3603 H       1  UNL1        0.0655
     43 H          -1.4441    2.6515    1.3665 H       1  UNL1        0.0629
     44 H          -0.1714    4.6618    2.3793 H       1  UNL1        0.0694
@<TRIPOS>BOND
     1     1     2    1
     2     2     3    2
     3     3     4    1
     4     4     5   ar
     5     5     6   ar
     6     6     7   ar
     7     7     8   ar
     8     7     9    1
     9     9    10   ar
    10    10    11   ar
    11    11    12    1
    12    12    13   ar
    13    13    14   ar
    14    14    15    1
    15    15    16   ar
    16    16    17   ar
    17    17    18   ar
    18    18    19   ar
    19    19    20   ar
    20    20    21   ar
    21    21    22   ar
    22    14    23   ar
    23    23    24   ar
    24    24    25   ar
    25    25    26   ar
    26    26    27   ar
    27    11    28   ar
    28    28    29   ar
    29    29    30   ar
    30    30    31   ar
    31    31    32   ar
    32     8     1    1
    33    32     9   ar
    34     8     4   ar
    35    27    12   ar
    36    32    28   ar
    37    22    15   ar
    38    27    23   ar
    39    22    18   ar
    40     1    33    1
    41     1    34    1
    42     2    35    1
    43     3    36    1
    44     5    37    1
    45    17    38    1
    46    20    39    1
    47    21    40    1
    48    25    41    1
    49    26    42    1
    50    29    43    1
    51    30    44    1
