@<TRIPOS>MOLECULE
*****
 44 51 0 0 0
SMALL
GASTEIGER

@<TRIPOS>ATOM
      1 C          -5.0835   -0.1076   -2.1866 C.3     1  UNL1       -0.0075
      2 C          -6.4420   -0.6913   -2.5891 C.2     1  UNL1       -0.0791
      3 C          -6.9592   -1.4593   -1.6018 C.2     1  UNL1       -0.0574
      4 C          -6.0625   -1.4751   -0.5067 C.ar    1  UNL1       -0.0142
      5 C          -6.0259   -2.0652    0.7191 C.ar    1  UNL1       -0.0163
      6 S          -4.5581   -1.6257    1.5191 S.2     1  UNL1       -0.0952
      7 C          -4.0053   -0.6655    0.1898 C.ar    1  UNL1        0.0305
      8 C          -4.9353   -0.6786   -0.8165 C.ar    1  UNL1       -0.0212
      9 C          -2.7463    0.0148    0.2211 C.ar    1  UNL1        0.0350
     10 S          -1.2503   -0.8272    0.3748 S.2     1  UNL1       -0.0854
     11 C          -0.3134    0.6135    0.2964 C.ar    1  UNL1        0.0414
     12 C           1.1101    0.6272    0.3748 C.ar    1  UNL1        0.0358
     13 S           2.1016    0.0441   -0.9094 S.2     1  UNL1       -0.0854
     14 C           3.5662    0.4303   -0.0888 C.ar    1  UNL1        0.0414
     15 C           4.8584    0.1747   -0.6358 C.ar    1  UNL1        0.0352
     16 S           5.4280    0.9749   -2.0543 S.2     1  UNL1       -0.0944
     17 C           6.9511    0.1678   -2.0221 C.ar    1  UNL1       -0.0094
     18 C           7.0133   -0.6874   -0.9608 C.ar    1  UNL1        0.0269
     19 S           8.3213   -1.7955   -0.4116 S.2     1  UNL1       -0.0961
     20 C           7.2013   -2.2329    0.8711 C.ar    1  UNL1       -0.0231
     21 C           5.9600   -1.5850    0.8602 C.ar    1  UNL1       -0.0459
     22 C           5.8371   -0.6610   -0.2116 C.ar    1  UNL1        0.0045
     23 C           3.3008    0.9811    1.1360 C.ar    1  UNL1        0.0352
     24 S           4.3812    1.6021    2.4446 S.2     1  UNL1       -0.0955
     25 C           2.8886    1.9741    3.2969 C.ar    1  UNL1       -0.0231
     26 C           1.6997    1.6508    2.6380 C.ar    1  UNL1       -0.0458
     27 C           1.9251    1.0707    1.3630 C.ar    1  UNL1        0.0051
     28 C          -1.1225    1.7085    0.1613 C.ar    1  UNL1        0.0352
     29 S          -0.7571    3.4731    0.0303 S.2     1  UNL1       -0.0955
     30 C          -2.4998    3.6757   -0.0804 C.ar    1  UNL1       -0.0231
     31 C          -3.2644    2.5056   -0.0233 C.ar    1  UNL1       -0.0458
     32 C          -2.4678    1.3378    0.1145 C.ar    1  UNL1        0.0051
     33 H          -4.2950   -0.4573   -2.8592 H       1  UNL1        0.0356
     34 H          -5.1207    0.9842   -2.1765 H       1  UNL1        0.0356
     35 H          -6.9139   -0.5022   -3.5434 H       1  UNL1        0.0575
     36 H          -7.9046   -1.9822   -1.6375 H       1  UNL1        0.0621
     37 H          -6.7459   -2.7152    1.1961 H       1  UNL1        0.0699
     38 H           7.7155    0.3410   -2.7644 H       1  UNL1        0.0705
     39 H           7.5364   -2.9764    1.5820 H       1  UNL1        0.0694
     40 H           5.1919   -1.7892    1.5990 H       1  UNL1        0.0629
     41 H           2.9820    2.4322    4.2709 H       1  UNL1        0.0694
     42 H           0.7220    1.8370    3.0717 H       1  UNL1        0.0629
     43 H          -2.8714    4.6856   -0.1778 H       1  UNL1        0.0694
     44 H          -4.3468    2.5169   -0.0734 H       1  UNL1        0.0629
@<TRIPOS>BOND
     1     1     2    1
     2     2     3    2
     3     3     4    1
     4     4     5   ar
     5     5     6   ar
     6     6     7   ar
     7     7     8   ar
     8     7     9    1
     9     9    10   ar
    10    10    11   ar
    11    11    12    1
    12    12    13   ar
    13    13    14   ar
    14    14    15    1
    15    15    16   ar
    16    16    17   ar
    17    17    18   ar
    18    18    19   ar
    19    19    20   ar
    20    20    21   ar
    21    21    22   ar
    22    14    23   ar
    23    23    24   ar
    24    24    25   ar
    25    25    26   ar
    26    26    27   ar
    27    11    28   ar
    28    28    29   ar
    29    29    30   ar
    30    30    31   ar
    31    31    32   ar
    32     8     1    1
    33    32     9   ar
    34     8     4   ar
    35    27    12   ar
    36    32    28   ar
    37    22    15   ar
    38    27    23   ar
    39    22    18   ar
    40     1    33    1
    41     1    34    1
    42     2    35    1
    43     3    36    1
    44     5    37    1
    45    17    38    1
    46    20    39    1
    47    21    40    1
    48    25    41    1
    49    26    42    1
    50    30    43    1
    51    31    44    1
