@<TRIPOS>MOLECULE
*****
 45 51 0 0 0
SMALL
GASTEIGER

@<TRIPOS>ATOM
      1 C          -5.4376    1.8825   -0.8596 C.3     1  UNL1        0.0000
      2 C          -6.8777    2.4051   -0.8419 C.2     1  UNL1        0.0000
      3 C          -7.7364    1.4634   -0.3903 C.2     1  UNL1        0.0000
      4 C          -7.0134    0.2854   -0.0817 C.ar    1  UNL1        0.0000
      5 C          -7.3269   -0.9531    0.3816 C.ar    1  UNL1        0.0000
      6 S          -5.8907   -1.9003    0.4924 S.2     1  UNL1        0.0000
      7 C          -4.8610   -0.6126   -0.0869 C.ar    1  UNL1        0.0000
      8 C          -3.4684   -0.8133   -0.2156 C.2     1  UNL1        0.0000
      9 SI         -2.1780    0.3134    0.5631 Si      1  UNL1        0.0000
     10 C          -0.8560   -0.7989   -0.1977 C.2     1  UNL1        0.0000
     11 C          -1.4262   -1.8144   -0.8802 C.2     1  UNL1        0.0000
     12 C          -2.8841   -1.8212   -0.8941 C.2     1  UNL1        0.0000
     13 C           0.5394   -0.6268   -0.0389 C.ar    1  UNL1        0.0000
     14 S           1.2992    0.9483   -0.0369 S.2     1  UNL1        0.0000
     15 C           2.9185    0.3399    0.1862 C.ar    1  UNL1        0.0000
     16 C           4.0851    1.1892    0.3148 C.ar    1  UNL1        0.0000
     17 S           3.9229    2.8205    0.9004 S.2     1  UNL1        0.0000
     18 C           5.5922    3.1531    0.7694 C.ar    1  UNL1        0.0000
     19 C           6.2782    2.0650    0.3051 C.ar    1  UNL1        0.0000
     20 N           7.6263    2.0814    0.1142 N.ar    1  UNL1        0.0000
     21 C           8.0639    0.8853   -0.3575 C.ar    1  UNL1        0.0000
     22 C           7.2497   -0.2236   -0.6061 C.ar    1  UNL1        0.0000
     23 N           5.9023   -0.2707   -0.4110 N.ar    1  UNL1        0.0000
     24 C           5.4211    0.9262    0.0502 C.ar    1  UNL1        0.0000
     25 C           2.8276   -1.0111    0.2154 C.ar    1  UNL1        0.0000
     26 N           3.8392   -1.9207    0.3538 N.ar    1  UNL1        0.0000
     27 C           3.1458   -3.1257    0.3472 C.ar    1  UNL1        0.0000
     28 C           1.7597   -2.9201    0.2019 C.ar    1  UNL1        0.0000
     29 C           1.5501   -1.5186    0.1049 C.ar    1  UNL1        0.0000
     30 C          -5.6388    0.4936   -0.3440 C.ar    1  UNL1        0.0000
     31 H          -4.8074    2.4793   -0.1949 H       1  UNL1        0.0000
     32 H          -5.0356    1.8844   -1.8765 H       1  UNL1        0.0000
     33 H          -7.1528    3.4016   -1.1536 H       1  UNL1        0.0000
     34 H          -8.8055    1.5794   -0.2824 H       1  UNL1        0.0000
     35 H          -8.2879   -1.3651    0.6540 H       1  UNL1        0.0000
     36 H          -2.1891    0.2643    2.0490 H       1  UNL1        0.0000
     37 H          -2.2068    1.6785   -0.0298 H       1  UNL1        0.0000
     38 H          -0.8771   -2.5891   -1.4024 H       1  UNL1        0.0000
     39 H          -3.4224   -2.5952   -1.4284 H       1  UNL1        0.0000
     40 H           5.9902    4.1212    1.0369 H       1  UNL1        0.0000
     41 H           9.1333    0.8304   -0.5416 H       1  UNL1        0.0000
     42 H           7.6879   -1.1426   -0.9869 H       1  UNL1        0.0000
     43 H           4.8342   -1.7168    0.3923 H       1  UNL1        0.0000
     44 H           3.7004   -4.0502    0.4413 H       1  UNL1        0.0000
     45 H           1.0127   -3.7019    0.1724 H       1  UNL1        0.0000
@<TRIPOS>BOND
     1     1     2    1
     2     2     3    2
     3     3     4    1
     4     4     5   ar
     5     5     6   ar
     6     6     7   ar
     7     7     8    1
     8     8     9    1
     9     9    10    1
    10    10    11    2
    11    11    12    1
    12    10    13    1
    13    13    14   ar
    14    14    15   ar
    15    15    16    1
    16    16    17   ar
    17    17    18   ar
    18    18    19   ar
    19    19    20   ar
    20    20    21   ar
    21    21    22   ar
    22    22    23   ar
    23    23    24   ar
    24    15    25   ar
    25    25    26   ar
    26    26    27   ar
    27    27    28   ar
    28    28    29   ar
    29     7    30   ar
    30    30     1    1
    31    30     4   ar
    32    12     8    2
    33    29    13   ar
    34    24    16   ar
    35    29    25   ar
    36    24    19   ar
    37     1    31    1
    38     1    32    1
    39     2    33    1
    40     3    34    1
    41     5    35    1
    42     9    36    1
    43     9    37    1
    44    11    38    1
    45    12    39    1
    46    18    40    1
    47    21    41    1
    48    22    42    1
    49    26    43    1
    50    27    44    1
    51    28    45    1
