@<TRIPOS>MOLECULE
*****
 46 52 0 0 0
SMALL
GASTEIGER

@<TRIPOS>ATOM
      1 C           6.2051   -0.6165    0.4934 C.3     1  UNL1       -0.0075
      2 C           7.6329   -0.0939    0.3120 C.2     1  UNL1       -0.0791
      3 C           7.6365    1.1325   -0.2557 C.2     1  UNL1       -0.0574
      4 C           6.3008    1.5353   -0.4985 C.ar    1  UNL1       -0.0142
      5 C           5.7044    2.6333   -1.0306 C.ar    1  UNL1       -0.0163
      6 S           3.9970    2.4203   -1.0025 S.2     1  UNL1       -0.0961
      7 C           4.0839    0.8334   -0.2658 C.ar    1  UNL1        0.0197
      8 C           2.8746    0.1288    0.0105 C.2     1  UNL1       -0.0290
      9 C           1.4381    0.5610   -0.2211 C.3     1  UNL1       -0.0003
     10 C           0.6319   -0.6254    0.2660 C.2     1  UNL1       -0.0287
     11 C           1.4920   -1.5557    0.7147 C.2     1  UNL1       -0.0569
     12 C           2.8507   -1.1010    0.5545 C.2     1  UNL1       -0.0569
     13 C          -0.7798   -0.8033    0.3080 C.ar    1  UNL1        0.0237
     14 S          -1.8154    0.5895    0.4535 S.2     1  UNL1       -0.0871
     15 C          -3.2801   -0.3292    0.4517 C.ar    1  UNL1        0.0325
     16 C          -2.9779   -1.6619    0.3398 C.ar    1  UNL1       -0.0206
     17 C          -3.7327   -2.9475    0.2549 C.3     1  UNL1       -0.0075
     18 C          -2.5833   -3.9390    0.0758 C.2     1  UNL1       -0.0791
     19 C          -1.3874   -3.3091    0.0763 C.2     1  UNL1       -0.0568
     20 C          -1.5844   -1.9112    0.2432 C.ar    1  UNL1       -0.0067
     21 C          -4.5709    0.2875    0.5636 C.ar    1  UNL1        0.0500
     22 S          -5.8669   -0.3698    1.5227 S.2     1  UNL1       -0.0934
     23 C          -6.9701    0.9114    1.1250 C.ar    1  UNL1       -0.0145
     24 C          -6.3267    1.7556    0.2951 C.ar    1  UNL1        0.0073
     25 C          -6.5336    2.9529   -0.4312 C.ar    1  UNL1       -0.0361
     26 C          -5.3326    3.2313   -1.1175 C.ar    1  UNL1        0.0028
     27 N          -4.3611    2.2654   -0.8649 N.ar    1  UNL1       -0.3597
     28 C          -5.0252    1.4256   -0.0141 C.ar    1  UNL1        0.0619
     29 C           5.4119    0.5208   -0.0667 C.ar    1  UNL1       -0.0220
     30 H           5.9880   -0.7816    1.5524 H       1  UNL1        0.0356
     31 H           6.0578   -1.5365   -0.0791 H       1  UNL1        0.0356
     32 H           8.5121   -0.6476    0.6058 H       1  UNL1        0.0575
     33 H           8.5126    1.7204   -0.4903 H       1  UNL1        0.0621
     34 H           6.1486    3.5346   -1.4282 H       1  UNL1        0.0699
     35 H           1.2070    1.4606    0.3596 H       1  UNL1        0.0362
     36 H           1.2485    0.7444   -1.2844 H       1  UNL1        0.0362
     37 H           1.2481   -2.5089    1.1587 H       1  UNL1        0.0621
     38 H           3.6920   -1.7075    0.8495 H       1  UNL1        0.0621
     39 H          -4.4031   -2.9698   -0.6087 H       1  UNL1        0.0356
     40 H          -4.2821   -3.1638    1.1751 H       1  UNL1        0.0356
     41 H          -2.7277   -5.0026   -0.0415 H       1  UNL1        0.0575
     42 H          -0.4288   -3.7911   -0.0494 H       1  UNL1        0.0621
     43 H          -7.9760    0.9383    1.5177 H       1  UNL1        0.0700
     44 H          -7.4306    3.5565   -0.4715 H       1  UNL1        0.0639
     45 H          -5.0908    4.0556   -1.7762 H       1  UNL1        0.0807
     46 H          -3.4069    2.1779   -1.1953 H       1  UNL1        0.1654
@<TRIPOS>BOND
     1     1     2    1
     2     2     3    2
     3     3     4    1
     4     4     5   ar
     5     5     6   ar
     6     6     7   ar
     7     7     8    1
     8     8     9    1
     9     9    10    1
    10    10    11    2
    11    11    12    1
    12    10    13    1
    13    13    14   ar
    14    14    15   ar
    15    15    16   ar
    16    16    17    1
    17    17    18    1
    18    18    19    2
    19    19    20    1
    20    15    21    1
    21    21    22   ar
    22    22    23   ar
    23    23    24   ar
    24    24    25   ar
    25    25    26   ar
    26    26    27   ar
    27    27    28   ar
    28     7    29   ar
    29    29     1    1
    30    29     4   ar
    31    12     8    2
    32    20    13   ar
    33    28    21   ar
    34    20    16   ar
    35    28    24   ar
    36     1    30    1
    37     1    31    1
    38     2    32    1
    39     3    33    1
    40     5    34    1
    41     9    35    1
    42     9    36    1
    43    11    37    1
    44    12    38    1
    45    17    39    1
    46    17    40    1
    47    18    41    1
    48    19    42    1
    49    23    43    1
    50    25    44    1
    51    26    45    1
    52    27    46    1
