@<TRIPOS>MOLECULE
*****
 45 51 0 0 0
SMALL
GASTEIGER

@<TRIPOS>ATOM
      1 C           6.4336   -0.5877    0.8653 C.3     1  UNL1       -0.0075
      2 C           7.8342    0.0277    0.9544 C.2     1  UNL1       -0.0791
      3 C           7.8067    1.3522    0.6837 C.2     1  UNL1       -0.0574
      4 C           6.4740    1.7406    0.4031 C.ar    1  UNL1       -0.0142
      5 C           5.8494    2.9030    0.0749 C.ar    1  UNL1       -0.0163
      6 S           4.1616    2.6047   -0.1211 S.2     1  UNL1       -0.0943
      7 C           4.3089    0.9096    0.2423 C.ar    1  UNL1        0.0395
      8 C           3.1698    0.0341    0.2456 C.ar    1  UNL1        0.0539
      9 C           3.0779   -1.3221    0.4892 C.ar    1  UNL1       -0.0353
     10 C           1.7147   -1.6951    0.3694 C.ar    1  UNL1       -0.0353
     11 C           0.9895   -0.5638    0.0462 C.ar    1  UNL1        0.0543
     12 N           1.8908    0.4720   -0.0148 N.ar    1  UNL1       -0.3533
     13 C          -0.4151   -0.3906   -0.1863 C.ar    1  UNL1        0.0469
     14 S          -1.5896   -1.5893    0.3017 S.2     1  UNL1       -0.0824
     15 C          -2.9380   -0.6775   -0.2716 C.ar    1  UNL1        0.0633
     16 C          -4.3029   -1.1331   -0.1720 C.ar    1  UNL1        0.0005
     17 C          -4.7659   -2.3475   -0.7386 C.ar    1  UNL1       -0.0528
     18 C          -6.1181   -2.8110   -0.6471 C.ar    1  UNL1       -0.0606
     19 C          -7.1455   -2.1141    0.0226 C.ar    1  UNL1       -0.0535
     20 C          -6.6863   -0.9239    0.5871 C.ar    1  UNL1       -0.0103
     21 C          -7.5094   -0.0861    1.2982 C.ar    1  UNL1       -0.0166
     22 S          -6.6506    1.2829    1.8801 S.2     1  UNL1       -0.1039
     23 C          -5.1738    0.7487    1.1780 C.ar    1  UNL1       -0.0160
     24 C          -5.3263   -0.4404    0.5014 C.ar    1  UNL1       -0.0026
     25 C          -2.4667    0.4597   -0.8180 C.ar    1  UNL1        0.1502
     26 O          -3.1941    1.4497   -1.4081 O.2     1  UNL1       -0.4617
     27 C          -2.1752    2.3082   -1.7687 C.ar    1  UNL1        0.0932
     28 C          -0.8964    1.8614   -1.4148 C.ar    1  UNL1       -0.0150
     29 C          -1.1004    0.6222   -0.7737 C.ar    1  UNL1        0.0369
     30 C           5.6242    0.6126    0.5009 C.ar    1  UNL1       -0.0203
     31 H           6.3990   -1.3548    0.0868 H       1  UNL1        0.0356
     32 H           6.1336   -1.0042    1.8308 H       1  UNL1        0.0356
     33 H           8.7186   -0.5397    1.2031 H       1  UNL1        0.0575
     34 H           8.6594    2.0163    0.6799 H       1  UNL1        0.0621
     35 H           6.2616    3.8926   -0.0610 H       1  UNL1        0.0699
     36 H           3.8962   -1.9865    0.7305 H       1  UNL1        0.0639
     37 H           1.3139   -2.6923    0.5011 H       1  UNL1        0.0639
     38 H           1.6592    1.4357   -0.2050 H       1  UNL1        0.1659
     39 H          -4.0592   -2.9716   -1.2878 H       1  UNL1        0.0624
     40 H          -6.3647   -3.7596   -1.1256 H       1  UNL1        0.0618
     41 H          -8.1610   -2.4829    0.0812 H       1  UNL1        0.0624
     42 H          -8.5627   -0.1938    1.5168 H       1  UNL1        0.0699
     43 H          -4.2860    1.3516    1.3066 H       1  UNL1        0.0700
     44 H          -2.5156    3.2003   -2.2787 H       1  UNL1        0.1030
     45 H           0.0267    2.3818   -1.6223 H       1  UNL1        0.0655
@<TRIPOS>BOND
     1     1     2    1
     2     2     3    2
     3     3     4    1
     4     4     5   ar
     5     5     6   ar
     6     6     7   ar
     7     7     8    1
     8     8     9   ar
     9     9    10   ar
    10    10    11   ar
    11    11    12   ar
    12    11    13    1
    13    13    14   ar
    14    14    15   ar
    15    15    16    1
    16    16    17   ar
    17    17    18   ar
    18    18    19   ar
    19    19    20   ar
    20    20    21   ar
    21    21    22   ar
    22    22    23   ar
    23    23    24   ar
    24    15    25   ar
    25    25    26   ar
    26    26    27   ar
    27    27    28   ar
    28    28    29   ar
    29     7    30   ar
    30    30     1    1
    31    30     4   ar
    32    12     8   ar
    33    29    13   ar
    34    24    16   ar
    35    29    25   ar
    36    24    20   ar
    37     1    31    1
    38     1    32    1
    39     2    33    1
    40     3    34    1
    41     5    35    1
    42     9    36    1
    43    10    37    1
    44    12    38    1
    45    17    39    1
    46    18    40    1
    47    19    41    1
    48    21    42    1
    49    23    43    1
    50    27    44    1
    51    28    45    1
