@<TRIPOS>MOLECULE
*****
 40 45 0 0 0
SMALL
GASTEIGER

@<TRIPOS>ATOM
      1 C           5.6050    0.5196    0.7317 C.3     1  UNL1       -0.0074
      2 C           6.6237    1.6631    0.7593 C.2     1  UNL1       -0.0791
      3 C           6.0126    2.8670    0.6857 C.2     1  UNL1       -0.0574
      4 C           4.6121    2.6722    0.6062 C.ar    1  UNL1       -0.0141
      5 C           3.5225    3.4809    0.5162 C.ar    1  UNL1       -0.0162
      6 S           2.0975    2.5094    0.4592 S.2     1  UNL1       -0.0927
      7 C           2.9822    1.0173    0.5579 C.ar    1  UNL1        0.0584
      8 C           2.2991   -0.2480    0.5548 C.ar    1  UNL1        0.1426
      9 C           2.8218   -1.5291    0.6085 C.ar    1  UNL1       -0.0147
     10 C           1.7312   -2.4331    0.5758 C.ar    1  UNL1       -0.0138
     11 C           0.5815   -1.6734    0.5054 C.ar    1  UNL1        0.1518
     12 O           0.9319   -0.3518    0.4923 O.2     1  UNL1       -0.4528
     13 C          -0.7812   -2.0927    0.4474 C.ar    1  UNL1        0.0826
     14 C          -1.3491   -3.3491    0.4080 C.ar    1  UNL1       -0.0328
     15 C          -2.7570   -3.1794    0.3544 C.ar    1  UNL1       -0.0352
     16 C          -3.0183   -1.8230    0.3436 C.ar    1  UNL1        0.0557
     17 N          -1.8072   -1.1800    0.4313 N.ar    1  UNL1       -0.3513
     18 C          -4.2622   -1.1271    0.2937 C.ar    1  UNL1        0.0593
     19 S          -5.6399   -1.5556    1.2588 S.2     1  UNL1       -0.0925
     20 C          -6.6108   -0.2448    0.6552 C.ar    1  UNL1       -0.0145
     21 C          -5.8706    0.4237   -0.2517 C.ar    1  UNL1        0.0073
     22 C          -5.9471    1.5215   -1.1423 C.ar    1  UNL1       -0.0361
     23 C          -4.7102    1.5912   -1.8184 C.ar    1  UNL1        0.0028
     24 N          -3.8394    0.5848   -1.4037 N.ar    1  UNL1       -0.3597
     25 C          -4.5961   -0.0558   -0.4620 C.ar    1  UNL1        0.0628
     26 C           4.3274    1.2852    0.6306 C.ar    1  UNL1       -0.0188
     27 H           5.6575   -0.0658    1.6538 H       1  UNL1        0.0356
     28 H           5.7672   -0.1198   -0.1405 H       1  UNL1        0.0356
     29 H           7.6903    1.5096    0.8294 H       1  UNL1        0.0575
     30 H           6.5046    3.8294    0.6870 H       1  UNL1        0.0621
     31 H           3.4636    4.5594    0.4810 H       1  UNL1        0.0699
     32 H           3.8678   -1.7913    0.6641 H       1  UNL1        0.0656
     33 H           1.7783   -3.5126    0.6020 H       1  UNL1        0.0656
     34 H          -0.8173   -4.2914    0.4178 H       1  UNL1        0.0640
     35 H          -3.4999   -3.9662    0.3140 H       1  UNL1        0.0639
     36 H          -1.6757   -0.1795    0.5018 H       1  UNL1        0.1660
     37 H          -7.6228   -0.0849    0.9970 H       1  UNL1        0.0700
     38 H          -6.7848    2.1874   -1.3014 H       1  UNL1        0.0639
     39 H          -4.3817    2.2840   -2.5828 H       1  UNL1        0.0807
     40 H          -2.9065    0.3486   -1.7192 H       1  UNL1        0.1654
@<TRIPOS>BOND
     1     1     2    1
     2     2     3    2
     3     3     4    1
     4     4     5   ar
     5     5     6   ar
     6     6     7   ar
     7     7     8    1
     8     8     9   ar
     9     9    10   ar
    10    10    11   ar
    11    11    12   ar
    12    11    13    1
    13    13    14   ar
    14    14    15   ar
    15    15    16   ar
    16    16    17   ar
    17    16    18    1
    18    18    19   ar
    19    19    20   ar
    20    20    21   ar
    21    21    22   ar
    22    22    23   ar
    23    23    24   ar
    24    24    25   ar
    25     7    26   ar
    26    26     1    1
    27    26     4   ar
    28    12     8   ar
    29    17    13   ar
    30    25    18   ar
    31    25    21   ar
    32     1    27    1
    33     1    28    1
    34     2    29    1
    35     3    30    1
    36     5    31    1
    37     9    32    1
    38    10    33    1
    39    14    34    1
    40    15    35    1
    41    17    36    1
    42    20    37    1
    43    22    38    1
    44    23    39    1
    45    24    40    1
