@<TRIPOS>MOLECULE
*****
 40 45 0 0 0
SMALL
GASTEIGER

@<TRIPOS>ATOM
      1 C          -4.7732    0.5180   -1.8262 C.3     1  UNL1       -0.0075
      2 C          -6.1384    0.7169   -2.4922 C.2     1  UNL1       -0.0791
      3 C          -7.1452    0.3626   -1.6622 C.2     1  UNL1       -0.0574
      4 C          -6.5995   -0.0807   -0.4328 C.ar    1  UNL1       -0.0142
      5 C          -7.1088   -0.5421    0.7402 C.ar    1  UNL1       -0.0163
      6 S          -5.8144   -0.8957    1.8187 S.2     1  UNL1       -0.0953
      7 C          -4.5781   -0.4174    0.6811 C.ar    1  UNL1        0.0299
      8 C          -3.1717   -0.4887    1.0267 C.ar    1  UNL1        0.0268
      9 C          -2.6126   -0.8112    2.2516 C.ar    1  UNL1       -0.0458
     10 C          -1.1862   -0.7868    2.2413 C.ar    1  UNL1       -0.0463
     11 C          -0.6705   -0.4525    1.0050 C.ar    1  UNL1        0.0214
     12 S          -1.9320   -0.1621   -0.1161 S.2     1  UNL1       -0.0877
     13 C           0.7334   -0.3069    0.6065 C.ar    1  UNL1        0.0069
     14 C           1.2233   -0.7656   -0.6164 C.ar    1  UNL1       -0.0500
     15 C           2.5763   -0.6087   -0.9321 C.ar    1  UNL1       -0.0335
     16 C           3.4408    0.0003   -0.0191 C.ar    1  UNL1        0.0913
     17 N           2.9772    0.4545    1.1707 N.ar    1  UNL1       -0.2528
     18 C           1.6600    0.2912    1.4538 C.ar    1  UNL1        0.0365
     19 C           4.8654    0.1917   -0.3238 C.ar    1  UNL1        0.1171
     20 N           5.2757    0.0784   -1.6448 N.ar    1  UNL1       -0.2511
     21 C           6.5793    0.2554   -2.0199 C.ar    1  UNL1        0.0305
     22 C           7.6549    0.5509   -1.1954 C.ar    1  UNL1       -0.0153
     23 C           7.3060    0.6620    0.1624 C.ar    1  UNL1        0.1035
     24 N           8.1714    0.9312    1.1534 N.ar    1  UNL1       -0.1907
     25 S           7.2883    0.9484    2.5562 S.2     1  UNL1        0.1165
     26 N           5.7800    0.6063    1.9721 N.ar    1  UNL1       -0.1886
     27 C           5.8811    0.4789    0.6353 C.ar    1  UNL1        0.1272
     28 C          -5.1852   -0.0053   -0.4855 C.ar    1  UNL1       -0.0212
     29 H          -4.1811   -0.2113   -2.3871 H       1  UNL1        0.0356
     30 H          -4.2436    1.4723   -1.7484 H       1  UNL1        0.0356
     31 H          -6.2604    1.0926   -3.4976 H       1  UNL1        0.0575
     32 H          -8.2008    0.4075   -1.8905 H       1  UNL1        0.0621
     33 H          -8.1382   -0.6928    1.0338 H       1  UNL1        0.0699
     34 H          -3.1924   -1.0564    3.1334 H       1  UNL1        0.0629
     35 H          -0.5749   -1.0160    3.1064 H       1  UNL1        0.0629
     36 H           0.5714   -1.2577   -1.3337 H       1  UNL1        0.0625
     37 H           2.9478   -0.9670   -1.8885 H       1  UNL1        0.0640
     38 H           1.3667    0.6846    2.4243 H       1  UNL1        0.0836
     39 H           6.7434    0.1432   -3.0918 H       1  UNL1        0.0830
     40 H           8.6650    0.6783   -1.5569 H       1  UNL1        0.0655
@<TRIPOS>BOND
     1     1     2    1
     2     2     3    2
     3     3     4    1
     4     4     5   ar
     5     5     6   ar
     6     6     7   ar
     7     7     8    1
     8     8     9   ar
     9     9    10   ar
    10    10    11   ar
    11    11    12   ar
    12    11    13    1
    13    13    14   ar
    14    14    15   ar
    15    15    16   ar
    16    16    17   ar
    17    17    18   ar
    18    16    19    1
    19    19    20   ar
    20    20    21   ar
    21    21    22   ar
    22    22    23   ar
    23    23    24   ar
    24    24    25   ar
    25    25    26   ar
    26    26    27   ar
    27     7    28   ar
    28    28     1    1
    29    28     4   ar
    30    12     8   ar
    31    18    13   ar
    32    27    19   ar
    33    27    23   ar
    34     1    29    1
    35     1    30    1
    36     2    31    1
    37     3    32    1
    38     5    33    1
    39     9    34    1
    40    10    35    1
    41    14    36    1
    42    15    37    1
    43    18    38    1
    44    21    39    1
    45    22    40    1
