@<TRIPOS>MOLECULE
*****
 40 44 0 0 0
SMALL
GASTEIGER

@<TRIPOS>ATOM
      1 C           6.6927   -0.4253    0.0894 C.ar    1  UNL1       -0.0595
      2 C           6.5646    0.9088    0.4983 C.ar    1  UNL1       -0.0582
      3 C           5.3075    1.5026    0.6667 C.ar    1  UNL1       -0.0171
      4 C           4.2158    0.6846    0.4027 C.ar    1  UNL1        0.1557
      5 O           2.8957    1.0132    0.4887 O.2     1  UNL1       -0.4353
      6 C           2.2411   -0.1398    0.1266 C.ar    1  UNL1        0.2284
      7 C           0.7806   -0.0918    0.1247 C.ar    1  UNL1        0.0376
      8 C           0.0730    1.0642    0.4721 C.ar    1  UNL1       -0.0445
      9 C          -1.3335    1.0911    0.4484 C.ar    1  UNL1       -0.0253
     10 C          -2.0687   -0.0590    0.1022 C.ar    1  UNL1        0.0362
     11 C          -1.3558   -1.2259   -0.2323 C.ar    1  UNL1       -0.0253
     12 C           0.0504   -1.2303   -0.2336 C.ar    1  UNL1       -0.0445
     13 C          -2.0911   -2.4813   -0.6268 C.3     1  UNL1       -0.0245
     14 C          -3.5003   -2.4930   -0.0521 C.3     1  UNL1       -0.0332
     15 C          -4.2056   -1.1918   -0.4010 C.3     1  UNL1        0.0125
     16 N          -3.4563   -0.0427    0.0913 N.pl3   1  UNL1       -0.3294
     17 C          -4.1872    1.1233    0.5705 C.3     1  UNL1        0.0125
     18 C          -3.4459    2.4075    0.2336 C.3     1  UNL1       -0.0332
     19 C          -2.0471    2.3629    0.8316 C.3     1  UNL1       -0.0245
     20 N           3.0391   -1.1508   -0.1753 N.ar    1  UNL1       -0.2090
     21 C           4.2986   -0.6366   -0.0028 C.ar    1  UNL1        0.1099
     22 C           5.5626   -1.2173   -0.1671 C.ar    1  UNL1       -0.0326
     23 H           7.6843   -0.8570   -0.0321 H       1  UNL1        0.0618
     24 H           7.4607    1.4968    0.6894 H       1  UNL1        0.0619
     25 H           5.1879    2.5312    0.9817 H       1  UNL1        0.0655
     26 H           0.6127    1.9648    0.7585 H       1  UNL1        0.0628
     27 H           0.5820   -2.1402   -0.5103 H       1  UNL1        0.0628
     28 H          -1.5537   -3.3659   -0.2652 H       1  UNL1        0.0314
     29 H          -2.1288   -2.5355   -1.7216 H       1  UNL1        0.0314
     30 H          -3.4569   -2.6086    1.0388 H       1  UNL1        0.0283
     31 H          -4.0604   -3.3472   -0.4479 H       1  UNL1        0.0283
     32 H          -5.2106   -1.2072    0.0374 H       1  UNL1        0.0464
     33 H          -4.3296   -1.1032   -1.4873 H       1  UNL1        0.0464
     34 H          -4.3318    1.0381    1.6545 H       1  UNL1        0.0464
     35 H          -5.1839    1.1618    0.1149 H       1  UNL1        0.0464
     36 H          -3.3817    2.5218   -0.8564 H       1  UNL1        0.0283
     37 H          -3.9923    3.2747    0.6202 H       1  UNL1        0.0283
     38 H          -2.1017    2.4173    1.9257 H       1  UNL1        0.0314
     39 H          -1.4837    3.2352    0.4799 H       1  UNL1        0.0314
     40 H           5.6571   -2.2498   -0.4836 H       1  UNL1        0.0640
@<TRIPOS>BOND
     1     1     2   ar
     2     2     3   ar
     3     3     4   ar
     4     4     5   ar
     5     5     6   ar
     6     6     7    1
     7     7     8   ar
     8     8     9   ar
     9     9    10   ar
    10    10    11   ar
    11    11    12   ar
    12    11    13    1
    13    13    14    1
    14    14    15    1
    15    15    16    1
    16    16    17    1
    17    17    18    1
    18    18    19    1
    19     6    20   ar
    20    20    21   ar
    21    21    22   ar
    22    22     1   ar
    23    21     4   ar
    24    12     7   ar
    25    19     9    1
    26    16    10    1
    27     1    23    1
    28     2    24    1
    29     3    25    1
    30     8    26    1
    31    12    27    1
    32    13    28    1
    33    13    29    1
    34    14    30    1
    35    14    31    1
    36    15    32    1
    37    15    33    1
    38    17    34    1
    39    17    35    1
    40    18    36    1
    41    18    37    1
    42    19    38    1
    43    19    39    1
    44    22    40    1
