@<TRIPOS>MOLECULE
*****
 31 35 0 0 0
SMALL
GASTEIGER

@<TRIPOS>ATOM
      1 C           5.9989   -0.7462   -0.3853 C.ar    1  UNL1       -0.0595
      2 C           6.0083    0.4767    0.2986 C.ar    1  UNL1       -0.0582
      3 C           4.8180    1.1054    0.6853 C.ar    1  UNL1       -0.0171
      4 C           3.6479    0.4374    0.3459 C.ar    1  UNL1        0.1558
      5 O           2.3675    0.8282    0.6022 O.2     1  UNL1       -0.4340
      6 C           1.5936   -0.1754    0.0633 C.ar    1  UNL1        0.2450
      7 C           0.1679   -0.1574    0.1153 C.ar    1  UNL1        0.1030
      8 C          -0.7539   -1.0650   -0.3655 C.ar    1  UNL1       -0.0240
      9 C          -2.0536   -0.5781   -0.0549 C.ar    1  UNL1        0.0012
     10 C          -3.3582   -1.0513   -0.2813 C.ar    1  UNL1       -0.0418
     11 C          -4.4666   -0.3170    0.1621 C.ar    1  UNL1        0.0208
     12 C          -5.8776   -0.4674    0.1193 C.ar    1  UNL1       -0.0161
     13 C          -6.4057    0.6355    0.7520 C.ar    1  UNL1        0.0931
     14 O          -5.4158    1.4608    1.1847 O.2     1  UNL1       -0.4629
     15 C          -4.2387    0.8811    0.8257 C.ar    1  UNL1        0.1368
     16 C          -2.9688    1.3812    1.0683 C.ar    1  UNL1        0.0051
     17 C          -1.8827    0.6336    0.6181 C.ar    1  UNL1        0.0506
     18 N          -0.5305    0.8644    0.7075 N.ar    1  UNL1       -0.3504
     19 N           2.2889   -1.1479   -0.5012 N.ar    1  UNL1       -0.2077
     20 C           3.5950   -0.7700   -0.3281 C.ar    1  UNL1        0.1099
     21 C           4.7930   -1.3874   -0.7087 C.ar    1  UNL1       -0.0326
     22 H           6.9415   -1.2088   -0.6719 H       1  UNL1        0.0618
     23 H           6.9607    0.9485    0.5346 H       1  UNL1        0.0619
     24 H           4.8058    2.0498    1.2141 H       1  UNL1        0.0655
     25 H          -0.5127   -1.9833   -0.8863 H       1  UNL1        0.0646
     26 H          -3.5055   -1.9926   -0.8037 H       1  UNL1        0.0631
     27 H          -6.4394   -1.2796   -0.3186 H       1  UNL1        0.0655
     28 H          -7.4127    0.9652    0.9660 H       1  UNL1        0.1029
     29 H          -2.8387    2.3224    1.5911 H       1  UNL1        0.0675
     30 H          -0.1070    1.6708    1.1463 H       1  UNL1        0.1660
     31 H           4.7812   -2.3337   -1.2379 H       1  UNL1        0.0640
@<TRIPOS>BOND
     1     1     2   ar
     2     2     3   ar
     3     3     4   ar
     4     4     5   ar
     5     5     6   ar
     6     6     7    1
     7     7     8   ar
     8     8     9   ar
     9     9    10   ar
    10    10    11   ar
    11    11    12   ar
    12    12    13   ar
    13    13    14   ar
    14    14    15   ar
    15    15    16   ar
    16    16    17   ar
    17    17    18   ar
    18     6    19   ar
    19    19    20   ar
    20    20    21   ar
    21    21     1   ar
    22    20     4   ar
    23    18     7   ar
    24    17     9   ar
    25    15    11   ar
    26     1    22    1
    27     2    23    1
    28     3    24    1
    29     8    25    1
    30    10    26    1
    31    12    27    1
    32    13    28    1
    33    16    29    1
    34    18    30    1
    35    21    31    1
