@<TRIPOS>MOLECULE
*****
 46 53 0 0 0
SMALL
GASTEIGER

@<TRIPOS>ATOM
      1 SI         -4.1945    1.6688    2.7595 Si      1  UNL1        0.0000
      2 C          -5.0801    0.8144    1.3656 C.2     1  UNL1        0.0000
      3 C          -4.2266    0.1824    0.5292 C.ar    1  UNL1        0.0000
      4 C          -4.6472   -0.6007   -0.6474 C.ar    1  UNL1        0.0000
      5 C          -5.9946   -0.6558   -1.0452 C.ar    1  UNL1        0.0000
      6 C          -6.3381   -1.3818   -2.1655 C.ar    1  UNL1        0.0000
      7 N          -5.4412   -2.0381   -2.9105 N.ar    1  UNL1        0.0000
      8 C          -4.1441   -1.9694   -2.5077 C.ar    1  UNL1        0.0000
      9 C          -3.6573   -1.2882   -1.3828 C.ar    1  UNL1        0.0000
     10 C          -2.2127   -1.2250   -0.9886 C.ar    1  UNL1        0.0000
     11 C          -1.1982   -1.9956   -1.6450 C.ar    1  UNL1        0.0000
     12 N          -1.3663   -2.9243   -2.6034 N.ar    1  UNL1        0.0000
     13 S           0.1115   -3.5166   -3.0263 S.2     1  UNL1        0.0000
     14 N           1.0691   -2.6281   -2.0208 N.ar    1  UNL1        0.0000
     15 C           0.2552   -1.8368   -1.2964 C.ar    1  UNL1        0.0000
     16 C           0.6776   -0.9136   -0.2999 C.ar    1  UNL1        0.0000
     17 C           2.0549   -0.7514   -0.0128 C.ar    1  UNL1        0.0000
     18 C           2.4599    0.1552    0.9540 C.ar    1  UNL1        0.0000
     19 C           1.4478    0.8516    1.5852 C.ar    1  UNL1        0.0000
     20 N           0.1220    0.6981    1.3185 N.ar    1  UNL1        0.0000
     21 C          -0.3165   -0.1802    0.3868 C.ar    1  UNL1        0.0000
     22 C          -1.7192   -0.3725    0.0798 C.ar    1  UNL1        0.0000
     23 C          -2.7945    0.3075    0.8935 C.ar    1  UNL1        0.0000
     24 C          -2.6159    1.0187    2.0301 C.2     1  UNL1        0.0000
     25 C           3.8690    0.3657    1.2655 C.ar    1  UNL1        0.0000
     26 S           4.4298    0.2050    2.8986 S.2     1  UNL1        0.0000
     27 C           6.0676    0.5543    2.4776 C.ar    1  UNL1        0.0000
     28 C           6.1809    0.7866    1.1343 C.ar    1  UNL1        0.0000
     29 C           7.3246    1.1168    0.3405 C.2     1  UNL1        0.0000
     30 C           7.0713    1.2905   -0.9752 C.2     1  UNL1        0.0000
     31 SI          5.2160    1.0331   -1.3677 Si      1  UNL1        0.0000
     32 C           4.9325    0.6731    0.4651 C.ar    1  UNL1        0.0000
     33 H          -4.5153    1.0698    4.0773 H       1  UNL1        0.0000
     34 H          -4.3116    3.1446    2.6775 H       1  UNL1        0.0000
     35 H          -6.1549    0.8615    1.3246 H       1  UNL1        0.0000
     36 H          -6.7800   -0.1402   -0.5067 H       1  UNL1        0.0000
     37 H          -7.3680   -1.4479   -2.5024 H       1  UNL1        0.0000
     38 H          -3.5007   -2.5080   -3.1929 H       1  UNL1        0.0000
     39 H           2.7946   -1.3486   -0.5428 H       1  UNL1        0.0000
     40 H           1.6640    1.5936    2.3505 H       1  UNL1        0.0000
     41 H          -1.7012    1.2385    2.5520 H       1  UNL1        0.0000
     42 H           6.8348    0.5678    3.2390 H       1  UNL1        0.0000
     43 H           8.3139    1.2179    0.7720 H       1  UNL1        0.0000
     44 H           7.7725    1.5415   -1.7546 H       1  UNL1        0.0000
     45 H           5.0157   -0.1467   -2.2450 H       1  UNL1        0.0000
     46 H           4.5932    2.2954   -1.8372 H       1  UNL1        0.0000
@<TRIPOS>BOND
     1     1     2    1
     2     2     3    2
     3     3     4   ar
     4     4     5   ar
     5     5     6   ar
     6     6     7   ar
     7     7     8   ar
     8     8     9   ar
     9     9    10   ar
    10    10    11   ar
    11    11    12   ar
    12    12    13   ar
    13    13    14   ar
    14    14    15   ar
    15    15    16   ar
    16    16    17   ar
    17    17    18   ar
    18    18    19   ar
    19    19    20   ar
    20    20    21   ar
    21    21    22   ar
    22    22    23   ar
    23    23    24    2
    24    18    25    1
    25    25    26   ar
    26    26    27   ar
    27    27    28   ar
    28    28    29    1
    29    29    30    2
    30    30    31    1
    31    31    32    1
    32    24     1    1
    33    32    25   ar
    34    23     3   ar
    35    32    28   ar
    36     9     4   ar
    37    22    10   ar
    38    15    11   ar
    39    21    16   ar
    40     1    33    1
    41     1    34    1
    42     2    35    1
    43     5    36    1
    44     6    37    1
    45     8    38    1
    46    17    39    1
    47    19    40    1
    48    24    41    1
    49    27    42    1
    50    29    43    1
    51    30    44    1
    52    31    45    1
    53    31    46    1
