@<TRIPOS>MOLECULE
*****
 30 34 0 0 0
SMALL
GASTEIGER

@<TRIPOS>ATOM
      1 C          -6.0362    0.3504    0.0068 C.ar    1  UNL1       -0.0595
      2 C          -5.9071   -0.9790    0.4304 C.ar    1  UNL1       -0.0582
      3 C          -4.6495   -1.5684    0.6092 C.ar    1  UNL1       -0.0171
      4 C          -3.5588   -0.7510    0.3400 C.ar    1  UNL1        0.1558
      5 O          -2.2396   -1.0756    0.4339 O.2     1  UNL1       -0.4329
      6 C          -1.5775    0.0735    0.0620 C.ar    1  UNL1        0.2646
      7 C          -0.1467    0.1670    0.0214 C.ar    1  UNL1        0.1907
      8 C           0.6322    1.2590   -0.3331 C.ar    1  UNL1       -0.0032
      9 C           1.9899    0.8690   -0.2187 C.ar    1  UNL1        0.0244
     10 C           3.2373    1.4726   -0.4207 C.ar    1  UNL1       -0.0080
     11 C           4.3821    0.7177   -0.1882 C.ar    1  UNL1        0.1356
     12 O           5.6662    1.1429   -0.3335 O.2     1  UNL1       -0.4629
     13 C           6.4670    0.0948   -0.0048 C.ar    1  UNL1        0.0931
     14 C           5.7132   -1.0011    0.3508 C.ar    1  UNL1       -0.0160
     15 C           4.3549   -0.6074    0.2352 C.ar    1  UNL1        0.0236
     16 C           3.1063   -1.2094    0.4367 C.ar    1  UNL1       -0.0080
     17 C           1.9622   -0.4534    0.2038 C.ar    1  UNL1        0.1367
     18 O           0.6809   -0.8795    0.3495 O.2     1  UNL1       -0.4500
     19 N          -2.3830    1.0782   -0.2529 N.ar    1  UNL1       -0.2063
     20 C          -3.6426    0.5646   -0.0795 C.ar    1  UNL1        0.1100
     21 C          -4.9067    1.1417   -0.2544 C.ar    1  UNL1       -0.0326
     22 H          -7.0284    0.7786   -0.1226 H       1  UNL1        0.0618
     23 H          -6.8027   -1.5669    0.6248 H       1  UNL1        0.0619
     24 H          -4.5286   -2.5936    0.9357 H       1  UNL1        0.0655
     25 H           0.2491    2.2235   -0.6383 H       1  UNL1        0.0663
     26 H           3.3191    2.5031   -0.7505 H       1  UNL1        0.0661
     27 H           7.5296    0.2824   -0.0726 H       1  UNL1        0.1029
     28 H           6.0963   -1.9644    0.6556 H       1  UNL1        0.0655
     29 H           3.0242   -2.2398    0.7664 H       1  UNL1        0.0661
     30 H          -5.0031    2.1707   -0.5823 H       1  UNL1        0.0640
@<TRIPOS>BOND
     1     1     2   ar
     2     2     3   ar
     3     3     4   ar
     4     4     5   ar
     5     5     6   ar
     6     6     7    1
     7     7     8   ar
     8     8     9   ar
     9     9    10   ar
    10    10    11   ar
    11    11    12   ar
    12    12    13   ar
    13    13    14   ar
    14    14    15   ar
    15    15    16   ar
    16    16    17   ar
    17    17    18   ar
    18     6    19   ar
    19    19    20   ar
    20    20    21   ar
    21    21     1   ar
    22    20     4   ar
    23    18     7   ar
    24    17     9   ar
    25    15    11   ar
    26     1    22    1
    27     2    23    1
    28     3    24    1
    29     8    25    1
    30    10    26    1
    31    13    27    1
    32    14    28    1
    33    16    29    1
    34    21    30    1
