@<TRIPOS>MOLECULE
*****
 29 33 0 0 0
SMALL
GASTEIGER

@<TRIPOS>ATOM
      1 C          -5.7989    0.2796   -0.2343 C.ar    1  UNL1       -0.0595
      2 C          -5.6058    0.6752    1.0960 C.ar    1  UNL1       -0.0582
      3 C          -4.3231    0.7713    1.6497 C.ar    1  UNL1       -0.0171
      4 C          -3.2749    0.4507    0.7961 C.ar    1  UNL1        0.1558
      5 O          -1.9418    0.4618    1.0809 O.2     1  UNL1       -0.4340
      6 C          -1.3425    0.0686   -0.0938 C.ar    1  UNL1        0.2451
      7 C           0.0718   -0.0541   -0.2317 C.ar    1  UNL1        0.1057
      8 C           0.8319   -0.4321   -1.3268 C.ar    1  UNL1       -0.0041
      9 C           2.1869   -0.3893   -0.9343 C.ar    1  UNL1        0.1091
     10 N           3.3312   -0.6627   -1.6156 N.ar    1  UNL1       -0.2387
     11 C           4.4761   -0.5082   -0.8967 C.ar    1  UNL1        0.1293
     12 C           5.8320   -0.6898   -1.2381 C.ar    1  UNL1        0.0039
     13 C           6.5511   -0.3837   -0.1023 C.ar    1  UNL1        0.0966
     14 O           5.7241   -0.0242    0.9197 O.2     1  UNL1       -0.4439
     15 C           4.4538   -0.0995    0.4365 C.ar    1  UNL1        0.2478
     16 N           3.3346    0.1783    1.1369 N.ar    1  UNL1       -0.1914
     17 C           2.2204    0.0156    0.3966 C.ar    1  UNL1        0.1610
     18 N           0.9341    0.2142    0.8069 N.ar    1  UNL1       -0.3340
     19 N          -2.1906   -0.1829   -1.0751 N.ar    1  UNL1       -0.2077
     20 C          -3.4223    0.0562   -0.5222 C.ar    1  UNL1        0.1099
     21 C          -4.7109   -0.0356   -1.0629 C.ar    1  UNL1       -0.0326
     22 H          -6.8092    0.2149   -0.6342 H       1  UNL1        0.0618
     23 H          -6.4712    0.9129    1.7127 H       1  UNL1        0.0619
     24 H          -4.1549    1.0751    2.6751 H       1  UNL1        0.0655
     25 H           0.4477   -0.7076   -2.2999 H       1  UNL1        0.0662
     26 H           6.2312   -1.0037   -2.1907 H       1  UNL1        0.0671
     27 H           7.6068   -0.3720    0.1327 H       1  UNL1        0.1031
     28 H           0.6686    0.5129    1.7348 H       1  UNL1        0.1675
     29 H          -4.8562   -0.3421   -2.0928 H       1  UNL1        0.0640
@<TRIPOS>BOND
     1     1     2   ar
     2     2     3   ar
     3     3     4   ar
     4     4     5   ar
     5     5     6   ar
     6     6     7    1
     7     7     8   ar
     8     8     9   ar
     9     9    10   ar
    10    10    11   ar
    11    11    12   ar
    12    12    13   ar
    13    13    14   ar
    14    14    15   ar
    15    15    16   ar
    16    16    17   ar
    17    17    18   ar
    18     6    19   ar
    19    19    20   ar
    20    20    21   ar
    21    21     1   ar
    22    20     4   ar
    23    18     7   ar
    24    17     9   ar
    25    15    11   ar
    26     1    22    1
    27     2    23    1
    28     3    24    1
    29     8    25    1
    30    12    26    1
    31    13    27    1
    32    18    28    1
    33    21    29    1
