@<TRIPOS>MOLECULE
*****
 76 85 0 0 0
SMALL
GASTEIGER

@<TRIPOS>ATOM
      1 C          10.5132    0.1312    1.1003 C.ar    1  UNL1       -0.0595
      2 C          10.2036   -0.5401    2.2904 C.ar    1  UNL1       -0.0582
      3 C           8.8788   -0.8193    2.6474 C.ar    1  UNL1       -0.0171
      4 C           7.9109   -0.3890    1.7485 C.ar    1  UNL1        0.1557
      5 O           6.5595   -0.5347    1.8551 O.2     1  UNL1       -0.4353
      6 C           6.0706    0.0562    0.7152 C.ar    1  UNL1        0.2284
      7 C           4.6194    0.0491    0.5444 C.ar    1  UNL1        0.0370
      8 C           4.0517    0.6415   -0.5905 C.ar    1  UNL1       -0.0489
      9 C           2.6647    0.6447   -0.7839 C.ar    1  UNL1       -0.0533
     10 C           1.8016    0.0536    0.1511 C.ar    1  UNL1       -0.0177
     11 C           0.3440    0.0469   -0.0557 C.ar    1  UNL1       -0.0143
     12 C          -0.3929   -1.1454    0.0380 C.ar    1  UNL1       -0.0322
     13 C          -1.7843   -1.1639   -0.1617 C.ar    1  UNL1        0.0412
     14 N          -2.5095   -2.4020   -0.0613 N.pl3   1  UNL1       -0.2670
     15 C          -3.0515   -2.7805    1.2287 C.ar    1  UNL1        0.0525
     16 C          -2.9119   -1.9210    2.3488 C.ar    1  UNL1       -0.0389
     17 C          -3.4237   -2.2428    3.6097 C.ar    1  UNL1       -0.0599
     18 C          -4.0925   -3.4408    3.7948 C.ar    1  UNL1       -0.0606
     19 C          -4.2431   -4.3088    2.7178 C.ar    1  UNL1       -0.0462
     20 C          -3.7314   -3.9915    1.4426 C.ar    1  UNL1        0.0344
     21 S          -4.0013   -5.2155    0.1912 S.3     1  UNL1       -0.0857
     22 C          -3.3109   -4.4568   -1.2519 C.ar    1  UNL1        0.0344
     23 C          -3.4386   -5.1996   -2.4433 C.ar    1  UNL1       -0.0462
     24 C          -2.9340   -4.7242   -3.6495 C.ar    1  UNL1       -0.0606
     25 C          -2.2928   -3.4974   -3.6786 C.ar    1  UNL1       -0.0599
     26 C          -2.1611   -2.7547   -2.5015 C.ar    1  UNL1       -0.0389
     27 C          -2.6651   -3.2085   -1.2557 C.ar    1  UNL1        0.0525
     28 C          -2.4564    0.0267   -0.4614 C.ar    1  UNL1       -0.0182
     29 C          -1.7436    1.2273   -0.5603 C.ar    1  UNL1        0.0412
     30 N          -2.4313    2.4516   -0.8725 N.pl3   1  UNL1       -0.2670
     31 C          -2.5716    2.8264   -2.2659 C.ar    1  UNL1        0.0525
     32 C          -1.9972    2.0270   -3.2875 C.ar    1  UNL1       -0.0389
     33 C          -2.1075    2.3495   -4.6436 C.ar    1  UNL1       -0.0599
     34 C          -2.7992    3.4863   -5.0254 C.ar    1  UNL1       -0.0606
     35 C          -3.3751    4.2923   -4.0481 C.ar    1  UNL1       -0.0462
     36 C          -3.2684    3.9746   -2.6788 C.ar    1  UNL1        0.0344
     37 S          -4.0665    5.1062   -1.5750 S.3     1  UNL1       -0.0857
     38 C          -3.7060    4.4182    0.0166 C.ar    1  UNL1        0.0344
     39 C          -4.2137    5.1420    1.1150 C.ar    1  UNL1       -0.0462
     40 C          -4.0053    4.7143    2.4227 C.ar    1  UNL1       -0.0606
     41 C          -3.2835    3.5548    2.6479 C.ar    1  UNL1       -0.0599
     42 C          -2.7772    2.8304    1.5642 C.ar    1  UNL1       -0.0389
     43 C          -2.9731    3.2364    0.2192 C.ar    1  UNL1        0.0525
     44 C          -0.3523    1.2293   -0.3560 C.ar    1  UNL1       -0.0322
     45 C           2.3748   -0.5366    1.2880 C.ar    1  UNL1       -0.0533
     46 C           3.7621   -0.5388    1.4827 C.ar    1  UNL1       -0.0489
     47 N           6.9977    0.5565   -0.0844 N.ar    1  UNL1       -0.2090
     48 C           8.1737    0.2769    0.5633 C.ar    1  UNL1        0.1099
     49 C           9.5038    0.5496    0.2196 C.ar    1  UNL1       -0.0326
     50 H          11.5535    0.3324    0.8524 H       1  UNL1        0.0618
     51 H          11.0098   -0.8516    2.9522 H       1  UNL1        0.0619
     52 H           8.6203   -1.3366    3.5624 H       1  UNL1        0.0655
     53 H           4.6919    1.1050   -1.3398 H       1  UNL1        0.0625
     54 H           2.2662    1.1057   -1.6855 H       1  UNL1        0.0624
     55 H           0.1138   -2.0844    0.2560 H       1  UNL1        0.0642
     56 H          -2.3982   -0.9672    2.2638 H       1  UNL1        0.0637
     57 H          -3.2977   -1.5524    4.4396 H       1  UNL1        0.0618
     58 H          -4.4963   -3.7023    4.7690 H       1  UNL1        0.0618
     59 H          -4.7690   -5.2488    2.8782 H       1  UNL1        0.0629
     60 H          -3.9402   -6.1660   -2.4352 H       1  UNL1        0.0629
     61 H          -3.0430   -5.3103   -4.5576 H       1  UNL1        0.0618
     62 H          -1.8931   -3.1105   -4.6122 H       1  UNL1        0.0618
     63 H          -1.6500   -1.7993   -2.5861 H       1  UNL1        0.0637
     64 H          -3.5321    0.0188   -0.6188 H       1  UNL1        0.0655
     65 H          -1.4442    1.1229   -3.0477 H       1  UNL1        0.0637
     66 H          -1.6520    1.7079   -5.3936 H       1  UNL1        0.0618
     67 H          -2.8931    3.7482   -6.0756 H       1  UNL1        0.0618
     68 H          -3.9163    5.1831   -4.3622 H       1  UNL1        0.0629
     69 H          -4.7828    6.0560    0.9527 H       1  UNL1        0.0629
     70 H          -4.4047    5.2856    3.2561 H       1  UNL1        0.0618
     71 H          -3.1096    3.2067    3.6628 H       1  UNL1        0.0618
     72 H          -2.2172    1.9301    1.8022 H       1  UNL1        0.0637
     73 H           0.1826    2.1753   -0.4259 H       1  UNL1        0.0642
     74 H           1.7417   -0.9976    2.0440 H       1  UNL1        0.0624
     75 H           4.1624   -1.0075    2.3790 H       1  UNL1        0.0625
     76 H           9.7397    1.0692   -0.7025 H       1  UNL1        0.0640
@<TRIPOS>BOND
     1     1     2   ar
     2     2     3   ar
     3     3     4   ar
     4     4     5   ar
     5     5     6   ar
     6     6     7    1
     7     7     8   ar
     8     8     9   ar
     9     9    10   ar
    10    10    11    1
    11    11    12   ar
    12    12    13   ar
    13    13    14    1
    14    14    15    1
    15    15    16   ar
    16    16    17   ar
    17    17    18   ar
    18    18    19   ar
    19    19    20   ar
    20    20    21    1
    21    21    22    1
    22    22    23   ar
    23    23    24   ar
    24    24    25   ar
    25    25    26   ar
    26    26    27   ar
    27    13    28   ar
    28    28    29   ar
    29    29    30    1
    30    30    31    1
    31    31    32   ar
    32    32    33   ar
    33    33    34   ar
    34    34    35   ar
    35    35    36   ar
    36    36    37    1
    37    37    38    1
    38    38    39   ar
    39    39    40   ar
    40    40    41   ar
    41    41    42   ar
    42    42    43   ar
    43    29    44   ar
    44    10    45   ar
    45    45    46   ar
    46     6    47   ar
    47    47    48   ar
    48    48    49   ar
    49    49     1   ar
    50    48     4   ar
    51    46     7   ar
    52    44    11   ar
    53    27    14    1
    54    43    30    1
    55    20    15   ar
    56    27    22   ar
    57    36    31   ar
    58    43    38   ar
    59     1    50    1
    60     2    51    1
    61     3    52    1
    62     8    53    1
    63     9    54    1
    64    12    55    1
    65    16    56    1
    66    17    57    1
    67    18    58    1
    68    19    59    1
    69    23    60    1
    70    24    61    1
    71    25    62    1
    72    26    63    1
    73    28    64    1
    74    32    65    1
    75    33    66    1
    76    34    67    1
    77    35    68    1
    78    39    69    1
    79    40    70    1
    80    41    71    1
    81    42    72    1
    82    44    73    1
    83    45    74    1
    84    46    75    1
    85    49    76    1
