@<TRIPOS>MOLECULE
*****
 45 50 0 0 0
SMALL
GASTEIGER

@<TRIPOS>ATOM
      1 C           7.7853   -0.6041    0.1948 C.ar    1  UNL1       -0.0595
      2 C           7.6807    0.7929    0.1676 C.ar    1  UNL1       -0.0582
      3 C           6.4345    1.4304    0.1267 C.ar    1  UNL1       -0.0171
      4 C           5.3289    0.5890    0.1153 C.ar    1  UNL1        0.1557
      5 O           4.0146    0.9498    0.0776 O.2     1  UNL1       -0.4353
      6 C           3.3409   -0.2476    0.0828 C.ar    1  UNL1        0.2284
      7 C           1.8813   -0.1790    0.0469 C.ar    1  UNL1        0.0370
      8 C           1.1329   -1.3666    0.0502 C.ar    1  UNL1       -0.0477
      9 C          -0.2644   -1.3344    0.0164 C.ar    1  UNL1       -0.0393
     10 C          -0.9420   -0.1098   -0.0215 C.ar    1  UNL1        0.0390
     11 N          -2.3674   -0.0734   -0.0559 N.pl3   1  UNL1       -0.2627
     12 C          -3.1389   -0.0301    1.1511 C.ar    1  UNL1        0.0813
     13 C          -2.5563   -0.0269    2.4306 C.ar    1  UNL1       -0.0364
     14 C          -3.3477    0.0161    3.5835 C.ar    1  UNL1       -0.0598
     15 C          -4.7353    0.0568    3.4788 C.ar    1  UNL1       -0.0582
     16 C          -5.3327    0.0542    2.2210 C.ar    1  UNL1       -0.0175
     17 C          -4.5404    0.0109    1.0692 C.ar    1  UNL1        0.1501
     18 O          -5.2239    0.0118   -0.1252 O.3     1  UNL1       -0.4523
     19 C          -4.4846   -0.0324   -1.2851 C.ar    1  UNL1        0.1501
     20 C          -5.2213   -0.0322   -2.4740 C.ar    1  UNL1       -0.0175
     21 C          -4.5650   -0.0752   -3.7013 C.ar    1  UNL1       -0.0582
     22 C          -3.1741   -0.1183   -3.7386 C.ar    1  UNL1       -0.0598
     23 C          -2.4382   -0.1183   -2.5487 C.ar    1  UNL1       -0.0364
     24 C          -3.0807   -0.0752   -1.2990 C.ar    1  UNL1        0.0813
     25 C          -0.2026    1.0798   -0.0251 C.ar    1  UNL1       -0.0393
     26 C           1.1953    1.0447    0.0088 C.ar    1  UNL1       -0.0477
     27 N           4.1201   -1.3153    0.1202 N.ar    1  UNL1       -0.2090
     28 C           5.3884   -0.7941    0.1412 C.ar    1  UNL1        0.1099
     29 C           6.6418   -1.4179    0.1820 C.ar    1  UNL1       -0.0326
     30 H           8.7692   -1.0685    0.2265 H       1  UNL1        0.0618
     31 H           8.5870    1.3962    0.1785 H       1  UNL1        0.0619
     32 H           6.3334    2.5079    0.1052 H       1  UNL1        0.0655
     33 H           1.6400   -2.3301    0.0794 H       1  UNL1        0.0626
     34 H          -0.8273   -2.2647    0.0196 H       1  UNL1        0.0636
     35 H          -1.4770   -0.0587    2.5525 H       1  UNL1        0.0637
     36 H          -2.8757    0.0173    4.5629 H       1  UNL1        0.0618
     37 H          -5.3501    0.0899    4.3743 H       1  UNL1        0.0619
     38 H          -6.4152    0.0854    2.1329 H       1  UNL1        0.0655
     39 H          -6.3068    0.0013   -2.4385 H       1  UNL1        0.0655
     40 H          -5.1367   -0.0755   -4.6255 H       1  UNL1        0.0619
     41 H          -2.6562   -0.1527   -4.6939 H       1  UNL1        0.0618
     42 H          -1.3544   -0.1535   -2.6180 H       1  UNL1        0.0637
     43 H          -0.7194    2.0362   -0.0544 H       1  UNL1        0.0636
     44 H           1.7415    1.9858    0.0050 H       1  UNL1        0.0626
     45 H           6.7187   -2.4991    0.2030 H       1  UNL1        0.0640
@<TRIPOS>BOND
     1     1     2   ar
     2     2     3   ar
     3     3     4   ar
     4     4     5   ar
     5     5     6   ar
     6     6     7    1
     7     7     8   ar
     8     8     9   ar
     9     9    10   ar
    10    10    11    1
    11    11    12    1
    12    12    13   ar
    13    13    14   ar
    14    14    15   ar
    15    15    16   ar
    16    16    17   ar
    17    17    18    1
    18    18    19    1
    19    19    20   ar
    20    20    21   ar
    21    21    22   ar
    22    22    23   ar
    23    23    24   ar
    24    10    25   ar
    25    25    26   ar
    26     6    27   ar
    27    27    28   ar
    28    28    29   ar
    29    29     1   ar
    30    28     4   ar
    31    26     7   ar
    32    24    11    1
    33    17    12   ar
    34    24    19   ar
    35     1    30    1
    36     2    31    1
    37     3    32    1
    38     8    33    1
    39     9    34    1
    40    13    35    1
    41    14    36    1
    42    15    37    1
    43    16    38    1
    44    20    39    1
    45    21    40    1
    46    22    41    1
    47    23    42    1
    48    25    43    1
    49    26    44    1
    50    29    45    1
