@<TRIPOS>MOLECULE
*****
 26 29 0 0 0
SMALL
GASTEIGER

@<TRIPOS>ATOM
      1 C           4.7107    0.1617   -0.9188 C.ar    1  UNL1       -0.0595
      2 C           4.7609   -0.0892    0.4589 C.ar    1  UNL1       -0.0582
      3 C           3.5924   -0.2235    1.2190 C.ar    1  UNL1       -0.0171
      4 C           2.4004   -0.0916    0.5174 C.ar    1  UNL1        0.1557
      5 O           1.1334   -0.1776    1.0141 O.2     1  UNL1       -0.4353
      6 C           0.3318    0.0249   -0.0833 C.ar    1  UNL1        0.2285
      7 C          -1.1125   -0.0111    0.1424 C.ar    1  UNL1        0.0391
      8 C          -1.6558   -0.2419    1.4209 C.ar    1  UNL1       -0.0474
      9 C          -3.0395   -0.2788    1.6503 C.ar    1  UNL1       -0.0340
     10 C          -3.8531   -0.0736    0.5380 C.ar    1  UNL1        0.0858
     11 N          -5.2075   -0.0363    0.3588 N.ar    1  UNL1       -0.2571
     12 N          -5.5380    0.1978   -0.9212 N.ar    1  UNL1       -0.0673
     13 N          -4.4082    0.3188   -1.6077 N.ar    1  UNL1       -0.1296
     14 C          -3.3622    0.1571   -0.7389 C.ar    1  UNL1        0.1132
     15 C          -1.9776    0.1907   -0.9502 C.ar    1  UNL1       -0.0202
     16 N           0.9887    0.2280   -1.2122 N.ar    1  UNL1       -0.2090
     17 C           2.3071    0.1560   -0.8418 C.ar    1  UNL1        0.1099
     18 C           3.4841    0.2879   -1.5893 C.ar    1  UNL1       -0.0326
     19 H           5.6374    0.2607   -1.4810 H       1  UNL1        0.0618
     20 H           5.7286   -0.1818    0.9492 H       1  UNL1        0.0619
     21 H           3.6112   -0.4173    2.2837 H       1  UNL1        0.0655
     22 H          -0.9924   -0.3990    2.2714 H       1  UNL1        0.0626
     23 H          -3.4432   -0.4577    2.6410 H       1  UNL1        0.0639
     24 H          -5.9476   -0.1574    1.0387 H       1  UNL1        0.1907
     25 H          -1.5902    0.3711   -1.9490 H       1  UNL1        0.0648
     26 H           3.4411    0.4820   -2.6552 H       1  UNL1        0.0640
@<TRIPOS>BOND
     1     1     2   ar
     2     2     3   ar
     3     3     4   ar
     4     4     5   ar
     5     5     6   ar
     6     6     7    1
     7     7     8   ar
     8     8     9   ar
     9     9    10   ar
    10    10    11   ar
    11    11    12   ar
    12    12    13   ar
    13    13    14   ar
    14    14    15   ar
    15     6    16   ar
    16    16    17   ar
    17    17    18   ar
    18    18     1   ar
    19    17     4   ar
    20    15     7   ar
    21    14    10   ar
    22     1    19    1
    23     2    20    1
    24     3    21    1
    25     8    22    1
    26     9    23    1
    27    11    24    1
    28    15    25    1
    29    18    26    1
