@<TRIPOS>MOLECULE
*****
 33 37 0 0 0
SMALL
GASTEIGER

@<TRIPOS>ATOM
      1 C           5.1144   -0.1646    0.3129 C.ar    1  UNL1       -0.0595
      2 C           4.7592    0.6257   -0.7885 C.ar    1  UNL1       -0.0582
      3 C           3.4361    0.6915   -1.2426 C.ar    1  UNL1       -0.0171
      4 C           2.5184   -0.0709   -0.5310 C.ar    1  UNL1        0.1557
      5 O           1.1793   -0.1819   -0.7623 O.2     1  UNL1       -0.4353
      6 C           0.7418   -1.0297    0.2245 C.ar    1  UNL1        0.2290
      7 C          -0.6590   -1.4035    0.1758 C.ar    1  UNL1        0.0466
      8 C          -1.0126   -2.7653    0.2340 C.ar    1  UNL1       -0.0488
      9 C          -2.3406   -3.1672    0.1443 C.ar    1  UNL1       -0.0591
     10 C          -3.3577   -2.2257   -0.0025 C.ar    1  UNL1       -0.0377
     11 C          -3.0007   -0.8710   -0.0303 C.ar    1  UNL1        0.0482
     12 N          -3.8079    0.2343   -0.1532 N.ar    1  UNL1       -0.3529
     13 C          -3.0738    1.3897   -0.0865 C.ar    1  UNL1        0.0658
     14 C          -3.4871    2.7152   -0.1412 C.ar    1  UNL1        0.0514
     15 N          -2.5687    3.6985   -0.0300 N.ar    1  UNL1       -0.2612
     16 C          -1.2736    3.3611    0.1394 C.ar    1  UNL1        0.0283
     17 C          -0.7967    2.0596    0.2004 C.ar    1  UNL1       -0.0338
     18 C          -1.7370    1.0229    0.0688 C.ar    1  UNL1        0.0110
     19 C          -1.6784   -0.4197    0.0707 C.ar    1  UNL1        0.0197
     20 N           1.6935   -1.4843    1.0215 N.ar    1  UNL1       -0.2089
     21 C           2.8270   -0.8644    0.5611 C.ar    1  UNL1        0.1099
     22 C           4.1547   -0.9217    1.0030 C.ar    1  UNL1       -0.0326
     23 H           6.1521   -0.1946    0.6399 H       1  UNL1        0.0618
     24 H           5.5277    1.1998   -1.3034 H       1  UNL1        0.0619
     25 H           3.1419    1.2940   -2.0925 H       1  UNL1        0.0655
     26 H          -0.2330   -3.5187    0.3385 H       1  UNL1        0.0625
     27 H          -2.5870   -4.2260    0.1826 H       1  UNL1        0.0618
     28 H          -4.3942   -2.5406   -0.0794 H       1  UNL1        0.0638
     29 H          -4.8121    0.1978   -0.2518 H       1  UNL1        0.1659
     30 H          -4.5195    3.0183   -0.2641 H       1  UNL1        0.0851
     31 H          -0.5906    4.2012    0.2334 H       1  UNL1        0.0830
     32 H           0.2583    1.8756    0.3540 H       1  UNL1        0.0639
     33 H           4.4260   -1.5357    1.8544 H       1  UNL1        0.0640
@<TRIPOS>BOND
     1     1     2   ar
     2     2     3   ar
     3     3     4   ar
     4     4     5   ar
     5     5     6   ar
     6     6     7    1
     7     7     8   ar
     8     8     9   ar
     9     9    10   ar
    10    10    11   ar
    11    11    12   ar
    12    12    13   ar
    13    13    14   ar
    14    14    15   ar
    15    15    16   ar
    16    16    17   ar
    17    17    18   ar
    18    18    19   ar
    19     6    20   ar
    20    20    21   ar
    21    21    22   ar
    22    22     1   ar
    23    21     4   ar
    24    19     7   ar
    25    19    11   ar
    26    18    13   ar
    27     1    23    1
    28     2    24    1
    29     3    25    1
    30     8    26    1
    31     9    27    1
    32    10    28    1
    33    12    29    1
    34    14    30    1
    35    16    31    1
    36    17    32    1
    37    22    33    1
