@<TRIPOS>MOLECULE
*****
 33 37 0 0 0
SMALL
GASTEIGER

@<TRIPOS>ATOM
      1 C           5.2463    0.1258    0.2409 C.ar    1  UNL1       -0.0595
      2 C           4.6595    1.3980    0.2735 C.ar    1  UNL1       -0.0582
      3 C           3.2687    1.5606    0.2540 C.ar    1  UNL1       -0.0171
      4 C           2.5283    0.3863    0.2008 C.ar    1  UNL1        0.1557
      5 O           1.1717    0.2617    0.1721 O.2     1  UNL1       -0.4353
      6 C           0.9495   -1.0837    0.1225 C.ar    1  UNL1        0.2291
      7 C          -0.4275   -1.5695    0.0812 C.ar    1  UNL1        0.0482
      8 C          -0.6087   -2.9782    0.0299 C.ar    1  UNL1       -0.0487
      9 C          -1.8662   -3.5716   -0.0130 C.ar    1  UNL1       -0.0575
     10 C          -3.0058   -2.7815   -0.0065 C.ar    1  UNL1       -0.0187
     11 C          -2.8213   -1.3993    0.0440 C.ar    1  UNL1        0.1370
     12 O          -3.8564   -0.5262    0.0552 O.2     1  UNL1       -0.4548
     13 C          -3.3313    0.7180    0.1071 C.ar    1  UNL1        0.1363
     14 C          -4.0966    1.8850    0.1332 C.ar    1  UNL1       -0.0187
     15 C          -3.4052    3.0936    0.1869 C.ar    1  UNL1       -0.0582
     16 C          -2.0143    3.1098    0.2125 C.ar    1  UNL1       -0.0610
     17 C          -1.2752    1.9146    0.1850 C.ar    1  UNL1       -0.0504
     18 C          -1.9384    0.6674    0.1305 C.ar    1  UNL1        0.0286
     19 C          -1.5864   -0.7388    0.0887 C.ar    1  UNL1        0.0401
     20 N           2.0577   -1.8115    0.1177 N.ar    1  UNL1       -0.2089
     21 C           3.0673   -0.8864    0.1673 C.ar    1  UNL1        0.1099
     22 C           4.4594   -1.0353    0.1873 C.ar    1  UNL1       -0.0326
     23 H           6.3307    0.0340    0.2573 H       1  UNL1        0.0618
     24 H           5.2980    2.2790    0.3149 H       1  UNL1        0.0619
     25 H           2.7975    2.5346    0.2786 H       1  UNL1        0.0655
     26 H           0.2676   -3.6288    0.0234 H       1  UNL1        0.0625
     27 H          -1.9552   -4.6546   -0.0516 H       1  UNL1        0.0619
     28 H          -4.0007   -3.2107   -0.0390 H       1  UNL1        0.0654
     29 H          -5.1792    1.8443    0.1124 H       1  UNL1        0.0654
     30 H          -3.9586    4.0295    0.2090 H       1  UNL1        0.0619
     31 H          -1.4877    4.0611    0.2545 H       1  UNL1        0.0618
     32 H          -0.1967    1.9938    0.2071 H       1  UNL1        0.0625
     33 H           4.9094   -2.0213    0.1619 H       1  UNL1        0.0640
@<TRIPOS>BOND
     1     1     2   ar
     2     2     3   ar
     3     3     4   ar
     4     4     5   ar
     5     5     6   ar
     6     6     7    1
     7     7     8   ar
     8     8     9   ar
     9     9    10   ar
    10    10    11   ar
    11    11    12   ar
    12    12    13   ar
    13    13    14   ar
    14    14    15   ar
    15    15    16   ar
    16    16    17   ar
    17    17    18   ar
    18    18    19   ar
    19     6    20   ar
    20    20    21   ar
    21    21    22   ar
    22    22     1   ar
    23    21     4   ar
    24    19     7   ar
    25    19    11   ar
    26    18    13   ar
    27     1    23    1
    28     2    24    1
    29     3    25    1
    30     8    26    1
    31     9    27    1
    32    10    28    1
    33    14    29    1
    34    15    30    1
    35    16    31    1
    36    17    32    1
    37    22    33    1
