@<TRIPOS>MOLECULE
*****
 32 36 0 0 0
SMALL
GASTEIGER

@<TRIPOS>ATOM
      1 C           5.0948   -0.0686    0.1498 C.ar    1  UNL1       -0.0595
      2 C           4.5367   -1.3209    0.4395 C.ar    1  UNL1       -0.0582
      3 C           3.1496   -1.5117    0.4717 C.ar    1  UNL1       -0.0171
      4 C           2.3829   -0.3857    0.1996 C.ar    1  UNL1        0.1557
      5 O           1.0233   -0.2958    0.1660 O.2     1  UNL1       -0.4353
      6 C           0.7718    1.0095   -0.1436 C.ar    1  UNL1        0.2291
      7 C          -0.6160    1.4497   -0.2599 C.ar    1  UNL1        0.0483
      8 C          -0.8326    2.8160   -0.5836 C.ar    1  UNL1       -0.0487
      9 C          -2.1054    3.3600   -0.7233 C.ar    1  UNL1       -0.0575
     10 C          -3.2249    2.5607   -0.5453 C.ar    1  UNL1       -0.0186
     11 C          -3.0053    1.2198   -0.2276 C.ar    1  UNL1        0.1390
     12 O          -4.0168    0.3435   -0.0305 O.2     1  UNL1       -0.4368
     13 C          -3.4641   -0.8561    0.2570 C.ar    1  UNL1        0.2284
     14 N          -4.2213   -1.9410    0.5056 N.ar    1  UNL1       -0.2205
     15 C          -3.5057   -3.0478    0.7727 C.ar    1  UNL1        0.0314
     16 C          -2.1245   -3.1163    0.8015 C.ar    1  UNL1       -0.0428
     17 C          -1.3831   -1.9622    0.5365 C.ar    1  UNL1       -0.0474
     18 C          -2.0687   -0.7639    0.2481 C.ar    1  UNL1        0.0483
     19 C          -1.7535    0.6113   -0.0729 C.ar    1  UNL1        0.0418
     20 N           1.8633    1.7435   -0.3064 N.ar    1  UNL1       -0.2089
     21 C           2.8934    0.8662   -0.0904 C.ar    1  UNL1        0.1099
     22 C           4.2820    1.0435   -0.1194 C.ar    1  UNL1       -0.0326
     23 H           6.1771    0.0461    0.1326 H       1  UNL1        0.0618
     24 H           5.1952   -2.1636    0.6439 H       1  UNL1        0.0619
     25 H           2.7012   -2.4714    0.6935 H       1  UNL1        0.0655
     26 H           0.0268    3.4727   -0.7303 H       1  UNL1        0.0625
     27 H          -2.2227    4.4121   -0.9721 H       1  UNL1        0.0619
     28 H          -4.2309    2.9526   -0.6468 H       1  UNL1        0.0654
     29 H          -4.1026   -3.9340    0.9759 H       1  UNL1        0.0831
     30 H          -1.6258   -4.0534    1.0267 H       1  UNL1        0.0633
     31 H          -0.3043   -2.0288    0.5621 H       1  UNL1        0.0626
     32 H           4.7100    2.0141   -0.3440 H       1  UNL1        0.0640
@<TRIPOS>BOND
     1     1     2   ar
     2     2     3   ar
     3     3     4   ar
     4     4     5   ar
     5     5     6   ar
     6     6     7    1
     7     7     8   ar
     8     8     9   ar
     9     9    10   ar
    10    10    11   ar
    11    11    12   ar
    12    12    13   ar
    13    13    14   ar
    14    14    15   ar
    15    15    16   ar
    16    16    17   ar
    17    17    18   ar
    18    18    19   ar
    19     6    20   ar
    20    20    21   ar
    21    21    22   ar
    22    22     1   ar
    23    21     4   ar
    24    19     7   ar
    25    19    11   ar
    26    18    13   ar
    27     1    23    1
    28     2    24    1
    29     3    25    1
    30     8    26    1
    31     9    27    1
    32    10    28    1
    33    15    29    1
    34    16    30    1
    35    17    31    1
    36    22    32    1
