@<TRIPOS>MOLECULE
*****
 32 36 0 0 0
SMALL
GASTEIGER

@<TRIPOS>ATOM
      1 C           4.5695    1.5119   -0.6002 C.ar    1  UNL1       -0.0595
      2 C           3.7942    2.1092   -1.6031 C.ar    1  UNL1       -0.0582
      3 C           2.4790    1.6973   -1.8510 C.ar    1  UNL1       -0.0171
      4 C           2.0088    0.6709   -1.0417 C.ar    1  UNL1        0.1557
      5 O           0.7743    0.0915   -1.0734 O.2     1  UNL1       -0.4353
      6 C           0.8238   -0.8434   -0.0698 C.ar    1  UNL1        0.2290
      7 C          -0.3479   -1.6869    0.0677 C.ar    1  UNL1        0.0458
      8 C          -0.1923   -3.0786   -0.0721 C.ar    1  UNL1       -0.0488
      9 C          -1.2872   -3.9233   -0.0140 C.ar    1  UNL1       -0.0600
     10 C          -2.5599   -3.3971    0.1825 C.ar    1  UNL1       -0.0473
     11 C          -2.7178   -2.0046    0.3514 C.ar    1  UNL1        0.0227
     12 S          -4.2140   -1.1984    0.6019 S.2     1  UNL1       -0.0687
     13 C          -3.4632    0.3100    0.7508 C.ar    1  UNL1        0.1093
     14 N          -4.2095    1.4079    0.9989 N.ar    1  UNL1       -0.2478
     15 C          -3.5014    2.5432    1.1317 C.ar    1  UNL1        0.0289
     16 C          -2.1278    2.6372    1.0393 C.ar    1  UNL1       -0.0429
     17 C          -1.3987    1.4789    0.7783 C.ar    1  UNL1       -0.0500
     18 C          -2.0806    0.2484    0.6082 C.ar    1  UNL1        0.0161
     19 C          -1.6325   -1.1147    0.3238 C.ar    1  UNL1        0.0107
     20 N           1.9821   -0.9185    0.5599 N.ar    1  UNL1       -0.2089
     21 C           2.7409    0.0539   -0.0408 C.ar    1  UNL1        0.1099
     22 C           4.0554    0.4756    0.1948 C.ar    1  UNL1       -0.0326
     23 H           5.5893    1.8546   -0.4342 H       1  UNL1        0.0618
     24 H           4.2235    2.9094   -2.2039 H       1  UNL1        0.0619
     25 H           1.8649    2.1448   -2.6222 H       1  UNL1        0.0655
     26 H           0.7986   -3.4973   -0.2432 H       1  UNL1        0.0625
     27 H          -1.1561   -4.9962   -0.1330 H       1  UNL1        0.0618
     28 H          -3.4240   -4.0568    0.2150 H       1  UNL1        0.0629
     29 H          -4.0996    3.4288    1.3328 H       1  UNL1        0.0830
     30 H          -1.6277    3.5906    1.1709 H       1  UNL1        0.0633
     31 H          -0.3173    1.5416    0.7242 H       1  UNL1        0.0625
     32 H           4.6533    0.0099    0.9703 H       1  UNL1        0.0640
@<TRIPOS>BOND
     1     1     2   ar
     2     2     3   ar
     3     3     4   ar
     4     4     5   ar
     5     5     6   ar
     6     6     7    1
     7     7     8   ar
     8     8     9   ar
     9     9    10   ar
    10    10    11   ar
    11    11    12   ar
    12    12    13   ar
    13    13    14   ar
    14    14    15   ar
    15    15    16   ar
    16    16    17   ar
    17    17    18   ar
    18    18    19   ar
    19     6    20   ar
    20    20    21   ar
    21    21    22   ar
    22    22     1   ar
    23    21     4   ar
    24    19     7   ar
    25    19    11   ar
    26    18    13   ar
    27     1    23    1
    28     2    24    1
    29     3    25    1
    30     8    26    1
    31     9    27    1
    32    10    28    1
    33    15    29    1
    34    16    30    1
    35    17    31    1
    36    22    32    1
