@<TRIPOS>MOLECULE
*****
 21 23 0 0 0
SMALL
GASTEIGER

@<TRIPOS>ATOM
      1 C           3.6885   -0.5448    0.2766 C.ar    1  UNL1       -0.0595
      2 C           3.6086   -0.0339   -1.0257 C.ar    1  UNL1       -0.0582
      3 C           2.3807    0.3301   -1.5922 C.ar    1  UNL1       -0.0171
      4 C           1.2674    0.1500   -0.7807 C.ar    1  UNL1        0.1557
      5 O          -0.0317    0.4222   -1.0868 O.2     1  UNL1       -0.4352
      6 C          -0.7270    0.0686    0.0463 C.ar    1  UNL1        0.2314
      7 C          -2.2643    0.2064    0.1628 C.ar    1  UNL1        0.0740
      8 C          -3.1673    0.6839   -0.7989 C.ar    1  UNL1        0.0614
      9 N          -4.4295    0.6635   -0.3563 N.ar    1  UNL1       -0.1816
     10 N          -4.3192    0.1699    0.8918 N.ar    1  UNL1       -0.2840
     11 C          -3.0359   -0.1209    1.2510 C.ar    1  UNL1        0.0346
     12 N           0.0336   -0.3981    1.0237 N.ar    1  UNL1       -0.2089
     13 C           1.3028   -0.3507    0.5088 C.ar    1  UNL1        0.1099
     14 C           2.5378   -0.7107    1.0629 C.ar    1  UNL1       -0.0326
     15 H           4.6586   -0.8182    0.6875 H       1  UNL1        0.0618
     16 H           4.5198    0.0828   -1.6101 H       1  UNL1        0.0619
     17 H           2.2988    0.7264   -2.5963 H       1  UNL1        0.0655
     18 H          -2.9640    1.0448   -1.7990 H       1  UNL1        0.0855
     19 H          -5.1654    0.0589    1.4413 H       1  UNL1        0.1882
     20 H          -2.7882   -0.5243    2.2224 H       1  UNL1        0.0831
     21 H           2.5957   -1.1057    2.0709 H       1  UNL1        0.0640
@<TRIPOS>BOND
     1     1     2   ar
     2     2     3   ar
     3     3     4   ar
     4     4     5   ar
     5     5     6   ar
     6     6     7    1
     7     7     8   ar
     8     8     9   ar
     9     9    10   ar
    10    10    11   ar
    11     6    12   ar
    12    12    13   ar
    13    13    14   ar
    14    14     1   ar
    15    13     4   ar
    16    11     7   ar
    17     1    15    1
    18     2    16    1
    19     3    17    1
    20     8    18    1
    21    10    19    1
    22    11    20    1
    23    14    21    1
