@<TRIPOS>MOLECULE
*****
 42 47 0 0 0
SMALL
GASTEIGER

@<TRIPOS>ATOM
      1 SI         -2.8144    3.7535   -0.7451 Si      1  UNL1        0.0000
      2 C          -4.0581    2.3928   -0.4899 C.2     1  UNL1        0.0000
      3 C          -3.4637    1.2048   -0.2410 C.ar    1  UNL1        0.0000
      4 C          -4.1878   -0.0570   -0.0012 C.ar    1  UNL1        0.0000
      5 C          -5.5910   -0.1195   -0.0096 C.ar    1  UNL1        0.0000
      6 C          -6.2133   -1.3301    0.2208 C.ar    1  UNL1        0.0000
      7 N          -5.5435   -2.4671    0.4559 N.ar    1  UNL1        0.0000
      8 C          -4.1888   -2.3814    0.4592 C.ar    1  UNL1        0.0000
      9 C          -3.4308   -1.2218    0.2408 C.ar    1  UNL1        0.0000
     10 C          -1.9295   -1.2037    0.2612 C.ar    1  UNL1        0.0000
     11 C          -1.2036   -2.3838    0.5051 C.ar    1  UNL1        0.0000
     12 C           0.1856   -2.3986    0.5332 C.ar    1  UNL1        0.0000
     13 C           0.9089   -1.2297    0.3184 C.ar    1  UNL1        0.0000
     14 C           2.3141   -1.2799    0.3564 C.ar    1  UNL1        0.0000
     15 C           3.0845   -0.1369    0.1516 C.ar    1  UNL1        0.0000
     16 C           2.3667    1.0208   -0.0880 C.ar    1  UNL1        0.0000
     17 N           1.0138    1.0965   -0.1293 N.ar    1  UNL1        0.0000
     18 C           0.2501   -0.0068    0.0679 C.ar    1  UNL1        0.0000
     19 C          -1.1802   -0.0006    0.0378 C.ar    1  UNL1        0.0000
     20 C          -1.9808    1.2439   -0.2249 C.ar    1  UNL1        0.0000
     21 C          -1.4928    2.4812   -0.4685 C.2     1  UNL1        0.0000
     22 C           4.5498   -0.1588    0.1881 C.ar    1  UNL1        0.0000
     23 C           5.2863    0.7525    0.9568 C.ar    1  UNL1        0.0000
     24 C           6.6795    0.7004    0.9694 C.ar    1  UNL1        0.0000
     25 C           7.3077   -0.2689    0.2076 C.ar    1  UNL1        0.0000
     26 N           6.6458   -1.1677   -0.5489 N.ar    1  UNL1        0.0000
     27 C           5.2926   -1.0894   -0.5413 C.ar    1  UNL1        0.0000
     28 H          -2.8754    4.7757    0.3277 H       1  UNL1        0.0000
     29 H          -2.8382    4.2808   -2.1310 H       1  UNL1        0.0000
     30 H          -5.1081    2.6215   -0.5540 H       1  UNL1        0.0000
     31 H          -6.2074    0.7521   -0.1913 H       1  UNL1        0.0000
     32 H          -7.2959   -1.4150    0.2214 H       1  UNL1        0.0000
     33 H          -3.7308   -3.3443    0.6571 H       1  UNL1        0.0000
     34 H          -1.6932   -3.3364    0.6826 H       1  UNL1        0.0000
     35 H           0.6935   -3.3417    0.7272 H       1  UNL1        0.0000
     36 H           2.8113   -2.2264    0.5647 H       1  UNL1        0.0000
     37 H           2.8674    1.9682   -0.2736 H       1  UNL1        0.0000
     38 H          -0.4658    2.7980   -0.5187 H       1  UNL1        0.0000
     39 H           4.7819    1.5012    1.5639 H       1  UNL1        0.0000
     40 H           7.2593    1.3978    1.5638 H       1  UNL1        0.0000
     41 H           8.3906   -0.3510    0.1855 H       1  UNL1        0.0000
     42 H           4.8039   -1.8250   -1.1763 H       1  UNL1        0.0000
@<TRIPOS>BOND
     1     1     2    1
     2     2     3    2
     3     3     4   ar
     4     4     5   ar
     5     5     6   ar
     6     6     7   ar
     7     7     8   ar
     8     8     9   ar
     9     9    10   ar
    10    10    11   ar
    11    11    12   ar
    12    12    13   ar
    13    13    14   ar
    14    14    15   ar
    15    15    16   ar
    16    16    17   ar
    17    17    18   ar
    18    18    19   ar
    19    19    20   ar
    20    20    21    2
    21    15    22    1
    22    22    23   ar
    23    23    24   ar
    24    24    25   ar
    25    25    26   ar
    26    26    27   ar
    27    21     1    1
    28    27    22   ar
    29    20     3   ar
    30     9     4   ar
    31    19    10   ar
    32    18    13   ar
    33     1    28    1
    34     1    29    1
    35     2    30    1
    36     5    31    1
    37     6    32    1
    38     8    33    1
    39    11    34    1
    40    12    35    1
    41    14    36    1
    42    16    37    1
    43    21    38    1
    44    23    39    1
    45    24    40    1
    46    25    41    1
    47    27    42    1
