@<TRIPOS>MOLECULE
*****
 32 36 0 0 0
SMALL
GASTEIGER

@<TRIPOS>ATOM
      1 C           5.1123    1.4886    0.4861 C.ar    1  UNL1       -0.0595
      2 C           5.6072    0.1873    0.3285 C.ar    1  UNL1       -0.0582
      3 C           4.7480   -0.9018    0.1373 C.ar    1  UNL1       -0.0171
      4 C           3.3920   -0.6008    0.1159 C.ar    1  UNL1        0.1557
      5 O           2.3543   -1.4693   -0.0529 O.2     1  UNL1       -0.4352
      6 C           1.2407   -0.6706    0.0061 C.ar    1  UNL1        0.2319
      7 C          -0.0380   -1.3325   -0.1453 C.ar    1  UNL1        0.0788
      8 C          -0.2152   -2.6959   -0.3428 C.ar    1  UNL1        0.0418
      9 N          -1.4142   -3.3132   -0.4844 N.ar    1  UNL1       -0.2618
     10 C          -2.5464   -2.5674   -0.4335 C.ar    1  UNL1        0.0374
     11 C          -2.4800   -1.1812   -0.2380 C.ar    1  UNL1        0.0277
     12 C          -1.2238   -0.5900   -0.0974 C.ar    1  UNL1        0.0628
     13 N          -1.4295    0.7612    0.0806 N.ar    1  UNL1       -0.3534
     14 C          -2.7694    1.0591    0.0596 C.ar    1  UNL1        0.0504
     15 C          -3.4282    2.2785    0.1982 C.ar    1  UNL1       -0.0196
     16 C          -4.8108    2.2082    0.1241 C.ar    1  UNL1        0.0295
     17 N          -5.5201    1.0740   -0.0664 N.ar    1  UNL1       -0.2625
     18 C          -4.8552   -0.1005   -0.1985 C.ar    1  UNL1        0.0373
     19 C          -3.4560   -0.1391   -0.1387 C.ar    1  UNL1        0.0270
     20 N           1.4918    0.6157    0.1964 N.ar    1  UNL1       -0.2089
     21 C           2.8619    0.6699    0.2677 C.ar    1  UNL1        0.1099
     22 C           3.7334    1.7496    0.4582 C.ar    1  UNL1       -0.0326
     23 H           5.8081    2.3128    0.6330 H       1  UNL1        0.0618
     24 H           6.6826    0.0183    0.3551 H       1  UNL1        0.0619
     25 H           5.1121   -1.9139    0.0137 H       1  UNL1        0.0655
     26 H           0.6383   -3.3683   -0.3965 H       1  UNL1        0.0838
     27 H          -3.4807   -3.1049   -0.5517 H       1  UNL1        0.0836
     28 H          -0.6776    1.4288    0.2083 H       1  UNL1        0.1659
     29 H          -2.9079    3.2147    0.3524 H       1  UNL1        0.0653
     30 H          -5.4124    3.1088    0.2211 H       1  UNL1        0.0830
     31 H          -5.4670   -0.9825   -0.3494 H       1  UNL1        0.0836
     32 H           3.3497    2.7563    0.5801 H       1  UNL1        0.0640
@<TRIPOS>BOND
     1     1     2   ar
     2     2     3   ar
     3     3     4   ar
     4     4     5   ar
     5     5     6   ar
     6     6     7    1
     7     7     8   ar
     8     8     9   ar
     9     9    10   ar
    10    10    11   ar
    11    11    12   ar
    12    12    13   ar
    13    13    14   ar
    14    14    15   ar
    15    15    16   ar
    16    16    17   ar
    17    17    18   ar
    18    18    19   ar
    19     6    20   ar
    20    20    21   ar
    21    21    22   ar
    22    22     1   ar
    23    21     4   ar
    24    12     7   ar
    25    19    14   ar
    26    19    11   ar
    27     1    23    1
    28     2    24    1
    29     3    25    1
    30     8    26    1
    31    10    27    1
    32    13    28    1
    33    15    29    1
    34    16    30    1
    35    18    31    1
    36    22    32    1
