@<TRIPOS>MOLECULE
*****
 28 32 0 0 0
SMALL
GASTEIGER

@<TRIPOS>ATOM
      1 C          -5.6967    0.7774   -0.3153 C.ar    1  UNL1       -0.0595
      2 C          -5.7284   -0.5223    0.2072 C.ar    1  UNL1       -0.0582
      3 C          -4.5497   -1.2235    0.4897 C.ar    1  UNL1       -0.0171
      4 C          -3.3676   -0.5461    0.2179 C.ar    1  UNL1        0.1559
      5 O          -2.0965   -0.9979    0.4002 O.2     1  UNL1       -0.4318
      6 C          -1.2950    0.0457   -0.0190 C.ar    1  UNL1        0.2851
      7 C           0.1454   -0.0157    0.0064 C.ar    1  UNL1        0.2851
      8 N           0.8328   -1.0709    0.4310 N.ar    1  UNL1       -0.2048
      9 C           2.1444   -0.7066    0.2852 C.ar    1  UNL1        0.1136
     10 C           3.3335   -1.3871    0.5593 C.ar    1  UNL1        0.0120
     11 C           4.5245   -0.7252    0.2938 C.ar    1  UNL1        0.1573
     12 O           5.7982   -1.1765    0.4758 O.2     1  UNL1       -0.4424
     13 C           6.5688   -0.1316    0.0561 C.ar    1  UNL1        0.1831
     14 N           5.9112    0.9265   -0.3696 N.ar    1  UNL1       -0.2160
     15 C           4.5980    0.5621   -0.2238 C.ar    1  UNL1        0.1129
     16 C           3.4078    1.2408   -0.4972 C.ar    1  UNL1        0.0120
     17 C           2.2177    0.5774   -0.2310 C.ar    1  UNL1        0.1581
     18 O           0.9480    1.0288   -0.4132 O.2     1  UNL1       -0.4318
     19 N          -1.9797    1.1010   -0.4436 N.ar    1  UNL1       -0.2049
     20 C          -3.2927    0.7352   -0.2972 C.ar    1  UNL1        0.1100
     21 C          -4.4791    1.4254   -0.5753 C.ar    1  UNL1       -0.0326
     22 H          -6.6311    1.2952   -0.5240 H       1  UNL1        0.0618
     23 H          -6.6892   -0.9977    0.3979 H       1  UNL1        0.0619
     24 H          -4.5533   -2.2281    0.8936 H       1  UNL1        0.0655
     25 H           3.3242   -2.3925    0.9636 H       1  UNL1        0.0677
     26 H           7.6394   -0.2712    0.1127 H       1  UNL1        0.1255
     27 H           3.4162    2.2462   -0.9015 H       1  UNL1        0.0677
     28 H          -4.4510    2.4311   -0.9796 H       1  UNL1        0.0640
@<TRIPOS>BOND
     1     1     2   ar
     2     2     3   ar
     3     3     4   ar
     4     4     5   ar
     5     5     6   ar
     6     6     7    1
     7     7     8   ar
     8     8     9   ar
     9     9    10   ar
    10    10    11   ar
    11    11    12   ar
    12    12    13   ar
    13    13    14   ar
    14    14    15   ar
    15    15    16   ar
    16    16    17   ar
    17    17    18   ar
    18     6    19   ar
    19    19    20   ar
    20    20    21   ar
    21    21     1   ar
    22    20     4   ar
    23    18     7   ar
    24    17     9   ar
    25    15    11   ar
    26     1    22    1
    27     2    23    1
    28     3    24    1
    29    10    25    1
    30    13    26    1
    31    16    27    1
    32    21    28    1
