@<TRIPOS>MOLECULE
*****
 28 32 0 0 0
SMALL
GASTEIGER

@<TRIPOS>ATOM
      1 C           0.5588    5.8668    0.4177 C.ar    1  UNL1       -0.0595
      2 C           0.2346    5.6208    1.7584 C.ar    1  UNL1       -0.0582
      3 C          -0.0014    4.3216    2.2248 C.ar    1  UNL1       -0.0171
      4 C           0.1079    3.3133    1.2755 C.ar    1  UNL1        0.1558
      5 O          -0.0703    1.9776    1.4657 O.2     1  UNL1       -0.4336
      6 C           0.1499    1.4155    0.2226 C.ar    1  UNL1        0.2541
      7 C           0.0573   -0.0060   -0.0098 C.ar    1  UNL1        0.1642
      8 N          -0.2430   -0.8655    0.9446 N.ar    1  UNL1       -0.2342
      9 C          -0.2606   -2.1516    0.4372 C.ar    1  UNL1        0.0802
     10 C          -0.5400   -3.3199    1.1576 C.ar    1  UNL1       -0.0194
     11 C          -0.5244   -4.5610    0.5216 C.ar    1  UNL1        0.0410
     12 S          -0.8268   -6.1301    1.1623 S.2     1  UNL1       -0.0753
     13 C          -0.5497   -6.8038   -0.3871 C.ar    1  UNL1        0.0659
     14 N          -0.2497   -5.9584   -1.3467 N.ar    1  UNL1       -0.2474
     15 C          -0.2322   -4.6709   -0.8384 C.ar    1  UNL1        0.0793
     16 C           0.0472   -3.5019   -1.5578 C.ar    1  UNL1       -0.0194
     17 C           0.0313   -2.2612   -0.9210 C.ar    1  UNL1        0.0418
     18 S           0.3330   -0.6945   -1.5596 S.2     1  UNL1       -0.0625
     19 N           0.4494    2.3104   -0.7122 N.ar    1  UNL1       -0.2072
     20 C           0.4251    3.5132   -0.0552 C.ar    1  UNL1        0.1099
     21 C           0.6588    4.8174   -0.5089 C.ar    1  UNL1       -0.0326
     22 H           0.7364    6.8885    0.0871 H       1  UNL1        0.0618
     23 H           0.1646    6.4564    2.4530 H       1  UNL1        0.0619
     24 H          -0.2530    4.1107    3.2565 H       1  UNL1        0.0655
     25 H          -0.7687   -3.2440    2.2171 H       1  UNL1        0.0651
     26 H          -0.6196   -7.8700   -0.5598 H       1  UNL1        0.0907
     27 H           0.2758   -3.5779   -2.6173 H       1  UNL1        0.0651
     28 H           0.9095    5.0043   -1.5472 H       1  UNL1        0.0640
@<TRIPOS>BOND
     1     1     2   ar
     2     2     3   ar
     3     3     4   ar
     4     4     5   ar
     5     5     6   ar
     6     6     7    1
     7     7     8   ar
     8     8     9   ar
     9     9    10   ar
    10    10    11   ar
    11    11    12   ar
    12    12    13   ar
    13    13    14   ar
    14    14    15   ar
    15    15    16   ar
    16    16    17   ar
    17    17    18   ar
    18     6    19   ar
    19    19    20   ar
    20    20    21   ar
    21    21     1   ar
    22    20     4   ar
    23    18     7   ar
    24    17     9   ar
    25    15    11   ar
    26     1    22    1
    27     2    23    1
    28     3    24    1
    29    10    25    1
    30    13    26    1
    31    16    27    1
    32    21    28    1
