@<TRIPOS>MOLECULE
*****
 26 29 0 0 0
SMALL
GASTEIGER

@<TRIPOS>ATOM
      1 C          -5.1579    0.5046   -0.9564 C.ar    1  UNL1       -0.0595
      2 C          -5.2674   -0.2364    0.2278 C.ar    1  UNL1       -0.0582
      3 C          -4.1324   -0.6651    0.9272 C.ar    1  UNL1       -0.0171
      4 C          -2.9117   -0.3069    0.3689 C.ar    1  UNL1        0.1558
      5 O          -1.6694   -0.5953    0.8451 O.2     1  UNL1       -0.4336
      6 C          -0.8025   -0.0187   -0.0668 C.ar    1  UNL1        0.2541
      7 C           0.6351   -0.0879    0.0610 C.ar    1  UNL1        0.1642
      8 N           1.4674    0.4584   -0.8028 N.ar    1  UNL1       -0.2342
      9 C           2.7755    0.2269   -0.4168 C.ar    1  UNL1        0.0791
     10 C           3.9281    0.6632   -1.1009 C.ar    1  UNL1       -0.0352
     11 C           5.1956    0.3566   -0.5952 C.ar    1  UNL1       -0.0597
     12 C           5.3266   -0.3769    0.5797 C.ar    1  UNL1       -0.0606
     13 C           4.1989   -0.8214    1.2771 C.ar    1  UNL1       -0.0459
     14 C           2.9310   -0.5075    0.7597 C.ar    1  UNL1        0.0397
     15 S           1.3760   -0.9062    1.3789 S.2     1  UNL1       -0.0625
     16 N          -1.4285    0.5986   -1.0619 N.ar    1  UNL1       -0.2072
     17 C          -2.7603    0.4222   -0.7957 C.ar    1  UNL1        0.1099
     18 C          -3.9033    0.8449   -1.4856 C.ar    1  UNL1       -0.0326
     19 H          -6.0594    0.8230   -1.4765 H       1  UNL1        0.0618
     20 H          -6.2553   -0.4843    0.6125 H       1  UNL1        0.0619
     21 H          -4.1969   -1.2383    1.8433 H       1  UNL1        0.0655
     22 H           3.8203    1.2353   -2.0173 H       1  UNL1        0.0639
     23 H           6.0820    0.6955   -1.1266 H       1  UNL1        0.0618
     24 H           6.3187   -0.6086    0.9622 H       1  UNL1        0.0618
     25 H           4.3031   -1.3938    2.1939 H       1  UNL1        0.0629
     26 H          -3.8133    1.4182   -2.4016 H       1  UNL1        0.0640
@<TRIPOS>BOND
     1     1     2   ar
     2     2     3   ar
     3     3     4   ar
     4     4     5   ar
     5     5     6   ar
     6     6     7    1
     7     7     8   ar
     8     8     9   ar
     9     9    10   ar
    10    10    11   ar
    11    11    12   ar
    12    12    13   ar
    13    13    14   ar
    14    14    15   ar
    15     6    16   ar
    16    16    17   ar
    17    17    18   ar
    18    18     1   ar
    19    17     4   ar
    20    15     7   ar
    21    14     9   ar
    22     1    19    1
    23     2    20    1
    24     3    21    1
    25    10    22    1
    26    11    23    1
    27    12    24    1
    28    13    25    1
    29    18    26    1
