@<TRIPOS>MOLECULE
*****
 28 32 0 0 0
SMALL
GASTEIGER

@<TRIPOS>ATOM
      1 C           5.5254   -0.3328   -1.3085 C.ar    1  UNL1       -0.0595
      2 C           5.7406    0.2425   -0.0491 C.ar    1  UNL1       -0.0582
      3 C           4.6725    0.5712    0.7946 C.ar    1  UNL1       -0.0171
      4 C           3.4062    0.2892    0.2982 C.ar    1  UNL1        0.1558
      5 O           2.2107    0.5086    0.9117 O.2     1  UNL1       -0.4330
      6 C           1.2764    0.0596    0.0088 C.ar    1  UNL1        0.2647
      7 C          -0.1342    0.0986    0.2427 C.ar    1  UNL1        0.1977
      8 N          -0.7418    0.5557    1.3244 N.ar    1  UNL1       -0.2021
      9 C          -2.0751    0.3810    1.0740 C.ar    1  UNL1        0.1999
     10 N          -3.1145    0.6960    1.8842 N.ar    1  UNL1       -0.2020
     11 C          -4.3348    0.4079    1.3696 C.ar    1  UNL1        0.1992
     12 N          -5.5576    0.6112    1.9500 N.ar    1  UNL1       -0.2152
     13 C          -6.4272    0.1722    1.0625 C.ar    1  UNL1        0.0973
     14 N          -5.8177   -0.3067   -0.0681 N.ar    1  UNL1       -0.3279
     15 C          -4.4750   -0.1648    0.1082 C.ar    1  UNL1        0.1791
     16 N          -3.4710   -0.4943   -0.7306 N.ar    1  UNL1       -0.2052
     17 C          -2.2779   -0.1910   -0.1792 C.ar    1  UNL1        0.1796
     18 N          -1.0312   -0.3627   -0.6917 N.ar    1  UNL1       -0.3176
     19 N           1.7960   -0.4199   -1.1138 N.ar    1  UNL1       -0.2063
     20 C           3.1502   -0.2777   -0.9380 C.ar    1  UNL1        0.1100
     21 C           4.2279   -0.6015   -1.7719 C.ar    1  UNL1       -0.0326
     22 H           6.3784   -0.5761   -1.9394 H       1  UNL1        0.0618
     23 H           6.7593    0.4387    0.2819 H       1  UNL1        0.0619
     24 H           4.8173    1.0163    1.7710 H       1  UNL1        0.0655
     25 H          -7.5033    0.1748    1.1805 H       1  UNL1        0.1028
     26 H          -6.2670   -0.6940   -0.8841 H       1  UNL1        0.1683
     27 H          -0.7928   -0.7551   -1.5907 H       1  UNL1        0.1690
     28 H           4.0604   -1.0467   -2.7462 H       1  UNL1        0.0640
@<TRIPOS>BOND
     1     1     2   ar
     2     2     3   ar
     3     3     4   ar
     4     4     5   ar
     5     5     6   ar
     6     6     7    1
     7     7     8   ar
     8     8     9   ar
     9     9    10   ar
    10    10    11   ar
    11    11    12   ar
    12    12    13   ar
    13    13    14   ar
    14    14    15   ar
    15    15    16   ar
    16    16    17   ar
    17    17    18   ar
    18     6    19   ar
    19    19    20   ar
    20    20    21   ar
    21    21     1   ar
    22    20     4   ar
    23    18     7   ar
    24    17     9   ar
    25    15    11   ar
    26     1    22    1
    27     2    23    1
    28     3    24    1
    29    13    25    1
    30    14    26    1
    31    18    27    1
    32    21    28    1
