@<TRIPOS>MOLECULE
*****
 33 37 0 0 0
SMALL
GASTEIGER

@<TRIPOS>ATOM
      1 C          -6.2359    1.2131   -0.2058 C.ar    1  UNL1       -0.0611
      2 C          -6.5140   -0.0895    0.1839 C.ar    1  UNL1       -0.0607
      3 C          -5.4779   -0.9946    0.4244 C.ar    1  UNL1       -0.0474
      4 C          -4.1460   -0.5645    0.2652 C.ar    1  UNL1        0.0200
      5 S          -2.7219   -1.4930    0.5031 S.2     1  UNL1       -0.0867
      6 C          -1.6753   -0.1920    0.0950 C.ar    1  UNL1        0.0387
      7 C          -0.2071   -0.3704    0.1113 C.ar    1  UNL1        0.0795
      8 C           0.6569    0.6744   -0.2170 C.ar    1  UNL1       -0.0112
      9 C           2.0219    0.3822   -0.1647 C.ar    1  UNL1        0.0510
     10 N           3.1167    1.1725   -0.4239 N.ar    1  UNL1       -0.3540
     11 C           4.2817    0.4650   -0.2447 C.ar    1  UNL1        0.0504
     12 C           5.6111    0.8553   -0.3921 C.ar    1  UNL1       -0.0196
     13 C           6.5446   -0.1343   -0.1242 C.ar    1  UNL1        0.0295
     14 N           6.2484   -1.3969    0.2541 N.ar    1  UNL1       -0.2625
     15 C           4.9468   -1.7526    0.3907 C.ar    1  UNL1        0.0373
     16 C           3.9251   -0.8266    0.1437 C.ar    1  UNL1        0.0269
     17 C           2.4971   -0.8771    0.1936 C.ar    1  UNL1        0.0270
     18 C           1.5636   -1.8685    0.5080 C.ar    1  UNL1        0.0381
     19 N           0.2346   -1.6033    0.4628 N.ar    1  UNL1       -0.2537
     20 C          -2.4219    0.9322   -0.2170 C.ar    1  UNL1       -0.0377
     21 C          -3.8419    0.7381   -0.1251 C.ar    1  UNL1       -0.0102
     22 C          -4.9119    1.6347   -0.3623 C.ar    1  UNL1       -0.0535
     23 H          -7.0496    1.9102   -0.3906 H       1  UNL1        0.0618
     24 H          -7.5458   -0.4114    0.3039 H       1  UNL1        0.0618
     25 H          -5.6962   -2.0141    0.7294 H       1  UNL1        0.0629
     26 H           0.3046    1.6575   -0.4973 H       1  UNL1        0.0660
     27 H           3.0730    2.1410   -0.7074 H       1  UNL1        0.1659
     28 H           5.9038    1.8527   -0.6924 H       1  UNL1        0.0653
     29 H           7.6080    0.0751   -0.2119 H       1  UNL1        0.0830
     30 H           4.7590   -2.7757    0.6959 H       1  UNL1        0.0836
     31 H           1.8401   -2.8760    0.7972 H       1  UNL1        0.0836
     32 H          -1.9849    1.8788   -0.5060 H       1  UNL1        0.0635
     33 H          -4.7068    2.6574   -0.6679 H       1  UNL1        0.0624
@<TRIPOS>BOND
     1     1     2   ar
     2     2     3   ar
     3     3     4   ar
     4     4     5   ar
     5     5     6   ar
     6     6     7    1
     7     7     8   ar
     8     8     9   ar
     9     9    10   ar
    10    10    11   ar
    11    11    12   ar
    12    12    13   ar
    13    13    14   ar
    14    14    15   ar
    15    15    16   ar
    16    16    17   ar
    17    17    18   ar
    18    18    19   ar
    19     6    20   ar
    20    20    21   ar
    21    21    22   ar
    22    22     1   ar
    23    21     4   ar
    24    19     7   ar
    25    17     9   ar
    26    16    11   ar
    27     1    23    1
    28     2    24    1
    29     3    25    1
    30     8    26    1
    31    10    27    1
    32    12    28    1
    33    13    29    1
    34    15    30    1
    35    18    31    1
    36    20    32    1
    37    22    33    1
