@<TRIPOS>MOLECULE
*****
 32 36 0 0 0
SMALL
GASTEIGER

@<TRIPOS>ATOM
      1 C          -6.1426    1.2982   -0.3205 C.ar    1  UNL1       -0.0597
      2 C          -6.4714    0.3688    0.6610 C.ar    1  UNL1       -0.0606
      3 C          -5.4796   -0.3905    1.2897 C.ar    1  UNL1       -0.0459
      4 C          -4.1435   -0.1899    0.9041 C.ar    1  UNL1        0.0396
      5 S          -2.7206   -0.9591    1.4837 S.2     1  UNL1       -0.0657
      6 C          -1.7562   -0.0209    0.4060 C.ar    1  UNL1        0.1277
      7 C          -0.2869   -0.1777    0.3622 C.ar    1  UNL1        0.0979
      8 C           0.4645    0.5968   -0.5213 C.ar    1  UNL1       -0.0097
      9 C           1.8428    0.3857   -0.4979 C.ar    1  UNL1        0.0511
     10 N           2.8492    0.9726   -1.2273 N.ar    1  UNL1       -0.3540
     11 C           4.0721    0.4541   -0.8730 C.ar    1  UNL1        0.0504
     12 C           5.3507    0.7464   -1.3430 C.ar    1  UNL1       -0.0196
     13 C           6.3723    0.0194   -0.7509 C.ar    1  UNL1        0.0295
     14 N           6.2024   -0.9130    0.2118 N.ar    1  UNL1       -0.2625
     15 C           4.9480   -1.1796    0.6527 C.ar    1  UNL1        0.0373
     16 C           3.8451   -0.5000    0.1194 C.ar    1  UNL1        0.0269
     17 C           2.4353   -0.5424    0.3558 C.ar    1  UNL1        0.0270
     18 C           1.6079   -1.2785    1.2110 C.ar    1  UNL1        0.0381
     19 N           0.2645   -1.0899    1.2054 N.ar    1  UNL1       -0.2522
     20 N          -2.4363    0.8233   -0.3510 N.ar    1  UNL1       -0.2375
     21 C          -3.7904    0.7358   -0.0769 C.ar    1  UNL1        0.0789
     22 C          -4.8087    1.4892   -0.6960 C.ar    1  UNL1       -0.0352
     23 H          -6.9251    1.8813   -0.8005 H       1  UNL1        0.0618
     24 H          -7.5126    0.2292    0.9447 H       1  UNL1        0.0618
     25 H          -5.7363   -1.1159    2.0558 H       1  UNL1        0.0629
     26 H          -0.0001    1.3180   -1.1840 H       1  UNL1        0.0660
     27 H           2.7089    1.6870   -1.9278 H       1  UNL1        0.1659
     28 H           5.5428    1.4833   -2.1117 H       1  UNL1        0.0653
     29 H           7.4050    0.1776   -1.0521 H       1  UNL1        0.0830
     30 H           4.8625   -1.9350    1.4254 H       1  UNL1        0.0836
     31 H           1.9844   -2.0202    1.9065 H       1  UNL1        0.0836
     32 H          -4.5482    2.2133   -1.4614 H       1  UNL1        0.0639
@<TRIPOS>BOND
     1     1     2   ar
     2     2     3   ar
     3     3     4   ar
     4     4     5   ar
     5     5     6   ar
     6     6     7    1
     7     7     8   ar
     8     8     9   ar
     9     9    10   ar
    10    10    11   ar
    11    11    12   ar
    12    12    13   ar
    13    13    14   ar
    14    14    15   ar
    15    15    16   ar
    16    16    17   ar
    17    17    18   ar
    18    18    19   ar
    19     6    20   ar
    20    20    21   ar
    21    21    22   ar
    22    22     1   ar
    23    21     4   ar
    24    19     7   ar
    25    17     9   ar
    26    16    11   ar
    27     1    23    1
    28     2    24    1
    29     3    25    1
    30     8    26    1
    31    10    27    1
    32    12    28    1
    33    13    29    1
    34    15    30    1
    35    18    31    1
    36    22    32    1
