@<TRIPOS>MOLECULE
*****
 28 31 0 0 0
SMALL
GASTEIGER

@<TRIPOS>ATOM
      1 C          -5.2114   -0.3118    0.4439 C.ar    1  UNL1       -0.0611
      2 C          -5.1922    1.0482    0.1678 C.ar    1  UNL1       -0.0607
      3 C          -3.9802    1.7208   -0.0043 C.ar    1  UNL1       -0.0474
      4 C          -2.7772    0.9964    0.1069 C.ar    1  UNL1        0.0200
      5 S          -1.1782    1.6061   -0.0640 S.2     1  UNL1       -0.0868
      6 C          -0.4641    0.0783    0.2244 C.ar    1  UNL1        0.0366
      7 C           0.9617   -0.1129    0.2210 C.ar    1  UNL1        0.0542
      8 C           1.7065   -1.2589    0.4311 C.ar    1  UNL1       -0.0267
      9 C           3.0859   -0.9241    0.3224 C.ar    1  UNL1        0.0184
     10 C           4.2819   -1.6431    0.4327 C.ar    1  UNL1        0.0367
     11 N           5.4766   -1.0214    0.2714 N.ar    1  UNL1       -0.2625
     12 C           5.4909    0.3032    0.0026 C.ar    1  UNL1        0.0295
     13 C           4.3650    1.1031   -0.1261 C.ar    1  UNL1       -0.0196
     14 C           3.1521    0.4396    0.0442 C.ar    1  UNL1        0.0498
     15 N           1.8597    0.9041   -0.0116 N.ar    1  UNL1       -0.3537
     16 C          -1.4303   -0.8808    0.4473 C.ar    1  UNL1       -0.0378
     17 C          -2.7711   -0.3712    0.3837 C.ar    1  UNL1       -0.0102
     18 C          -4.0146   -1.0263    0.5532 C.ar    1  UNL1       -0.0535
     19 H          -6.1602   -0.8263    0.5762 H       1  UNL1        0.0618
     20 H          -6.1274    1.5971    0.0843 H       1  UNL1        0.0618
     21 H          -3.9681    2.7852   -0.2203 H       1  UNL1        0.0629
     22 H           1.3093   -2.2430    0.6421 H       1  UNL1        0.0645
     23 H           4.3158   -2.7050    0.6467 H       1  UNL1        0.0836
     24 H           6.4837    0.7311   -0.1135 H       1  UNL1        0.0830
     25 H           4.4332    2.1608   -0.3424 H       1  UNL1        0.0653
     26 H           1.5964    1.8616   -0.1978 H       1  UNL1        0.1659
     27 H          -1.2014   -1.9194    0.6509 H       1  UNL1        0.0635
     28 H          -4.0421   -2.0913    0.7698 H       1  UNL1        0.0624
@<TRIPOS>BOND
     1     1     2   ar
     2     2     3   ar
     3     3     4   ar
     4     4     5   ar
     5     5     6   ar
     6     6     7    1
     7     7     8   ar
     8     8     9   ar
     9     9    10   ar
    10    10    11   ar
    11    11    12   ar
    12    12    13   ar
    13    13    14   ar
    14    14    15   ar
    15     6    16   ar
    16    16    17   ar
    17    17    18   ar
    18    18     1   ar
    19    17     4   ar
    20    15     7   ar
    21    14     9   ar
    22     1    19    1
    23     2    20    1
    24     3    21    1
    25     8    22    1
    26    10    23    1
    27    12    24    1
    28    13    25    1
    29    15    26    1
    30    16    27    1
    31    18    28    1
