@<TRIPOS>MOLECULE
*****
 27 30 0 0 0
SMALL
GASTEIGER

@<TRIPOS>ATOM
      1 C          -4.9770    0.8286    0.1964 C.ar    1  UNL1       -0.0597
      2 C          -5.2632   -0.4661   -0.2249 C.ar    1  UNL1       -0.0606
      3 C          -4.2362   -1.3640   -0.5318 C.ar    1  UNL1       -0.0459
      4 C          -2.9083   -0.9239   -0.4034 C.ar    1  UNL1        0.0396
      5 S          -1.4452   -1.7802   -0.7020 S.2     1  UNL1       -0.0658
      6 C          -0.5436   -0.3950   -0.2584 C.ar    1  UNL1        0.1256
      7 C           0.8876   -0.3549   -0.2625 C.ar    1  UNL1        0.0729
      8 C           1.8446   -1.2980   -0.5834 C.ar    1  UNL1       -0.0252
      9 C           3.1271   -0.7043   -0.4040 C.ar    1  UNL1        0.0184
     10 C           4.4447   -1.1492   -0.5659 C.ar    1  UNL1        0.0367
     11 N           5.4878   -0.3218   -0.3070 N.ar    1  UNL1       -0.2625
     12 C           5.2326    0.9386    0.1096 C.ar    1  UNL1        0.0295
     13 C           3.9677    1.4747    0.3007 C.ar    1  UNL1       -0.0196
     14 C           2.9150    0.6047    0.0280 C.ar    1  UNL1        0.0499
     15 N           1.5556    0.7893    0.1049 N.ar    1  UNL1       -0.3525
     16 N          -1.2439    0.6606    0.0964 N.ar    1  UNL1       -0.2375
     17 C          -2.5967    0.3707    0.0175 C.ar    1  UNL1        0.0789
     18 C          -3.6509    1.2563    0.3208 C.ar    1  UNL1       -0.0352
     19 H          -5.7874    1.5150    0.4313 H       1  UNL1        0.0618
     20 H          -6.2993   -0.7860   -0.3174 H       1  UNL1        0.0618
     21 H          -4.4610   -2.3741   -0.8605 H       1  UNL1        0.0629
     22 H           1.6549   -2.3112   -0.9135 H       1  UNL1        0.0646
     23 H           4.6943   -2.1504   -0.8974 H       1  UNL1        0.0836
     24 H           6.1176    1.5418    0.2969 H       1  UNL1        0.0830
     25 H           3.8192    2.4924    0.6364 H       1  UNL1        0.0653
     26 H           1.0888    1.6406    0.3898 H       1  UNL1        0.1660
     27 H          -3.4247    2.2658    0.6492 H       1  UNL1        0.0639
@<TRIPOS>BOND
     1     1     2   ar
     2     2     3   ar
     3     3     4   ar
     4     4     5   ar
     5     5     6   ar
     6     6     7    1
     7     7     8   ar
     8     8     9   ar
     9     9    10   ar
    10    10    11   ar
    11    11    12   ar
    12    12    13   ar
    13    13    14   ar
    14    14    15   ar
    15     6    16   ar
    16    16    17   ar
    17    17    18   ar
    18    18     1   ar
    19    17     4   ar
    20    15     7   ar
    21    14     9   ar
    22     1    19    1
    23     2    20    1
    24     3    21    1
    25     8    22    1
    26    10    23    1
    27    12    24    1
    28    13    25    1
    29    15    26    1
    30    18    27    1
