@<TRIPOS>MOLECULE
*****
 33 36 0 0 0
SMALL
GASTEIGER

@<TRIPOS>ATOM
      1 C          -6.3889   -0.2285    0.2483 C.ar    1  UNL1       -0.0611
      2 C          -6.4005   -0.5196   -1.1087 C.ar    1  UNL1       -0.0607
      3 C          -5.2046   -0.6168   -1.8236 C.ar    1  UNL1       -0.0474
      4 C          -3.9867   -0.4147   -1.1453 C.ar    1  UNL1        0.0199
      5 S          -2.4062   -0.4830   -1.8085 S.2     1  UNL1       -0.0882
      6 C          -1.6372   -0.1269   -0.3130 C.ar    1  UNL1        0.0205
      7 C          -0.1594   -0.0343   -0.2028 C.ar    1  UNL1       -0.0112
      8 C           0.4461    0.2575    1.0278 C.ar    1  UNL1       -0.0529
      9 C           1.8433    0.3520    1.1646 C.ar    1  UNL1       -0.0519
     10 C           2.7090    0.1594    0.0764 C.ar    1  UNL1        0.0019
     11 C           4.1869    0.2512    0.1831 C.ar    1  UNL1        0.0890
     12 C           4.8812    0.5359    1.3609 C.ar    1  UNL1        0.0535
     13 N           6.2365    0.6172    1.4451 N.ar    1  UNL1       -0.2596
     14 C           6.8967    0.4007    0.2901 C.ar    1  UNL1        0.0457
     15 C           6.2364    0.1173   -0.8889 C.ar    1  UNL1        0.0464
     16 N           4.8873    0.0378   -0.9661 N.ar    1  UNL1       -0.2520
     17 C           2.0941   -0.1327   -1.1537 C.ar    1  UNL1       -0.0519
     18 C           0.6992   -0.2275   -1.2923 C.ar    1  UNL1       -0.0529
     19 C          -2.5978    0.0392    0.6721 C.ar    1  UNL1       -0.0392
     20 C          -3.9498   -0.1217    0.2155 C.ar    1  UNL1       -0.0102
     21 C          -5.1767   -0.0290    0.9159 C.ar    1  UNL1       -0.0535
     22 H          -7.3250   -0.1548    0.7964 H       1  UNL1        0.0618
     23 H          -7.3467   -0.6736   -1.6220 H       1  UNL1        0.0618
     24 H          -5.2151   -0.8447   -2.8857 H       1  UNL1        0.0629
     25 H          -0.1534    0.4204    1.9196 H       1  UNL1        0.0624
     26 H           2.2224    0.5821    2.1565 H       1  UNL1        0.0624
     27 H           4.3779    0.7142    2.3032 H       1  UNL1        0.0851
     28 H           7.9777    0.4612    0.3372 H       1  UNL1        0.0845
     29 H           6.7752   -0.0555   -1.8134 H       1  UNL1        0.0845
     30 H           2.7052   -0.2944   -2.0419 H       1  UNL1        0.0624
     31 H           0.3159   -0.4576   -2.2833 H       1  UNL1        0.0624
     32 H          -2.3637    0.2708    1.7028 H       1  UNL1        0.0635
     33 H          -5.1796    0.1985    1.9789 H       1  UNL1        0.0624
@<TRIPOS>BOND
     1     1     2   ar
     2     2     3   ar
     3     3     4   ar
     4     4     5   ar
     5     5     6   ar
     6     6     7    1
     7     7     8   ar
     8     8     9   ar
     9     9    10   ar
    10    10    11    1
    11    11    12   ar
    12    12    13   ar
    13    13    14   ar
    14    14    15   ar
    15    15    16   ar
    16    10    17   ar
    17    17    18   ar
    18     6    19   ar
    19    19    20   ar
    20    20    21   ar
    21    21     1   ar
    22    20     4   ar
    23    18     7   ar
    24    16    11   ar
    25     1    22    1
    26     2    23    1
    27     3    24    1
    28     8    25    1
    29     9    26    1
    30    12    27    1
    31    14    28    1
    32    15    29    1
    33    17    30    1
    34    18    31    1
    35    19    32    1
    36    21    33    1
