@<TRIPOS>MOLECULE
*****
 44 50 0 0 0
SMALL
GASTEIGER

@<TRIPOS>ATOM
      1 SI         -3.2243   -1.2809    3.8343 Si      1  UNL1        0.0000
      2 C          -4.3997   -0.4672    2.6518 C.2     1  UNL1        0.0000
      3 C          -3.7749   -0.1114    1.5130 C.ar    1  UNL1        0.0000
      4 C          -4.4139    0.3438    0.3284 C.ar    1  UNL1        0.0000
      5 C          -5.7375    0.6790   -0.0144 C.ar    1  UNL1        0.0000
      6 C          -5.6978    1.0072   -1.3553 C.ar    1  UNL1        0.0000
      7 O          -4.4312    0.8892   -1.8502 O.2     1  UNL1        0.0000
      8 C          -3.6612    0.4784   -0.8125 C.ar    1  UNL1        0.0000
      9 C          -2.2379    0.2864   -0.9313 C.ar    1  UNL1        0.0000
     10 C          -1.4803    0.4247   -2.0873 C.ar    1  UNL1        0.0000
     11 C          -1.8949    0.6672   -3.3717 C.ar    1  UNL1        0.0000
     12 O          -0.8129    0.7218   -4.2047 O.2     1  UNL1        0.0000
     13 C           0.3006    0.5219   -3.4391 C.ar    1  UNL1        0.0000
     14 C          -0.0625    0.3327   -2.1291 C.ar    1  UNL1        0.0000
     15 C           0.7735    0.1401   -1.0074 C.ar    1  UNL1        0.0000
     16 C           2.1907    0.1166   -1.0708 C.ar    1  UNL1        0.0000
     17 C           2.9570    0.0142    0.0923 C.ar    1  UNL1        0.0000
     18 C           2.2704   -0.0360    1.3089 C.ar    1  UNL1        0.0000
     19 C           0.8635   -0.0244    1.3661 C.ar    1  UNL1        0.0000
     20 C           0.0350    0.0113    0.2213 C.ar    1  UNL1        0.0000
     21 C          -1.4469   -0.0186    0.2426 C.ar    1  UNL1        0.0000
     22 C          -2.2891   -0.3714    1.4700 C.ar    1  UNL1        0.0000
     23 C          -1.8755   -1.0724    2.5500 C.2     1  UNL1        0.0000
     24 C           4.4248   -0.0096    0.0388 C.ar    1  UNL1        0.0000
     25 C           5.1195   -0.9067   -0.7830 C.ar    1  UNL1        0.0000
     26 C           6.5134   -0.9053   -0.8085 C.ar    1  UNL1        0.0000
     27 C           7.1840    0.0003   -0.0052 C.ar    1  UNL1        0.0000
     28 N           6.5637    0.8845    0.8021 N.ar    1  UNL1        0.0000
     29 C           5.2080    0.8586    0.8020 C.ar    1  UNL1        0.0000
     30 H          -2.9699   -0.4646    5.0450 H       1  UNL1        0.0000
     31 H          -3.5502   -2.7062    4.0768 H       1  UNL1        0.0000
     32 H          -5.4566   -0.4098    2.8579 H       1  UNL1        0.0000
     33 H          -6.6143    0.6817    0.6163 H       1  UNL1        0.0000
     34 H          -6.4447    1.3271   -2.0686 H       1  UNL1        0.0000
     35 H          -2.8531    0.8134   -3.8504 H       1  UNL1        0.0000
     36 H           1.2373    0.5558   -3.9766 H       1  UNL1        0.0000
     37 H           2.6910    0.2089   -2.0320 H       1  UNL1        0.0000
     38 H           2.8222   -0.0861    2.2470 H       1  UNL1        0.0000
     39 H           0.4318    0.0098    2.3613 H       1  UNL1        0.0000
     40 H          -0.9167   -1.5207    2.7414 H       1  UNL1        0.0000
     41 H           4.5790   -1.6218   -1.3990 H       1  UNL1        0.0000
     42 H           7.0611   -1.5978   -1.4377 H       1  UNL1        0.0000
     43 H           8.2694    0.0392    0.0109 H       1  UNL1        0.0000
     44 H           4.7504    1.5970    1.4563 H       1  UNL1        0.0000
@<TRIPOS>BOND
     1     1     2    1
     2     2     3    2
     3     3     4   ar
     4     4     5   ar
     5     5     6   ar
     6     6     7   ar
     7     7     8   ar
     8     8     9   ar
     9     9    10   ar
    10    10    11   ar
    11    11    12   ar
    12    12    13   ar
    13    13    14   ar
    14    14    15   ar
    15    15    16   ar
    16    16    17   ar
    17    17    18   ar
    18    18    19   ar
    19    19    20   ar
    20    20    21   ar
    21    21    22   ar
    22    22    23    2
    23    17    24    1
    24    24    25   ar
    25    25    26   ar
    26    26    27   ar
    27    27    28   ar
    28    28    29   ar
    29    23     1    1
    30    29    24   ar
    31    22     3   ar
    32     8     4   ar
    33    21     9   ar
    34    14    10   ar
    35    20    15   ar
    36     1    30    1
    37     1    31    1
    38     2    32    1
    39     5    33    1
    40     6    34    1
    41    11    35    1
    42    13    36    1
    43    16    37    1
    44    18    38    1
    45    19    39    1
    46    23    40    1
    47    25    41    1
    48    26    42    1
    49    27    43    1
    50    29    44    1
