@<TRIPOS>MOLECULE
*****
 32 35 0 0 0
SMALL
GASTEIGER

@<TRIPOS>ATOM
      1 C           6.2853    0.6278   -0.2843 C.ar    1  UNL1       -0.0597
      2 C           6.3514   -0.2025   -1.3987 C.ar    1  UNL1       -0.0606
      3 C           5.1918   -0.7594   -1.9473 C.ar    1  UNL1       -0.0459
      4 C           3.9597   -0.4579   -1.3433 C.ar    1  UNL1        0.0395
      5 S           2.3814   -0.9796   -1.7762 S.2     1  UNL1       -0.0672
      6 C           1.7040   -0.0814   -0.4707 C.ar    1  UNL1        0.1094
      7 C           0.2500   -0.0592   -0.2012 C.ar    1  UNL1        0.0072
      8 C          -0.2276    0.6952    0.8801 C.ar    1  UNL1       -0.0514
      9 C          -1.5963    0.7581    1.1896 C.ar    1  UNL1       -0.0519
     10 C          -2.5562    0.0680    0.4309 C.ar    1  UNL1        0.0019
     11 C          -4.0107    0.1096    0.7263 C.ar    1  UNL1        0.0890
     12 C          -4.5871    0.8281    1.7760 C.ar    1  UNL1        0.0535
     13 N          -5.9223    0.8573    2.0351 N.ar    1  UNL1       -0.2596
     14 C          -6.6857    0.1304    1.1953 C.ar    1  UNL1        0.0457
     15 C          -6.1429   -0.5894    0.1496 C.ar    1  UNL1        0.0464
     16 N          -4.8133   -0.6147   -0.1035 N.ar    1  UNL1       -0.2520
     17 C          -2.0648   -0.6861   -0.6522 C.ar    1  UNL1       -0.0519
     18 C          -0.6968   -0.7509   -0.9641 C.ar    1  UNL1       -0.0514
     19 N           2.5888    0.5753    0.2560 N.ar    1  UNL1       -0.2390
     20 C           3.8694    0.3711   -0.2267 C.ar    1  UNL1        0.0789
     21 C           5.0524    0.9204    0.3081 C.ar    1  UNL1       -0.0352
     22 H           7.1956    1.0536    0.1313 H       1  UNL1        0.0618
     23 H           7.3166   -0.4225   -1.8503 H       1  UNL1        0.0618
     24 H           5.2444   -1.4072   -2.8170 H       1  UNL1        0.0629
     25 H           0.4734    1.2511    1.5030 H       1  UNL1        0.0624
     26 H          -1.8761    1.3670    2.0448 H       1  UNL1        0.0624
     27 H          -3.9992    1.4207    2.4661 H       1  UNL1        0.0851
     28 H          -7.7524    0.1415    1.3862 H       1  UNL1        0.0845
     29 H          -6.7644   -1.1714   -0.5210 H       1  UNL1        0.0845
     30 H          -2.7576   -1.2456   -1.2813 H       1  UNL1        0.0624
     31 H          -0.4066   -1.3576   -1.8181 H       1  UNL1        0.0624
     32 H           4.9955    1.5676    1.1776 H       1  UNL1        0.0639
@<TRIPOS>BOND
     1     1     2   ar
     2     2     3   ar
     3     3     4   ar
     4     4     5   ar
     5     5     6   ar
     6     6     7    1
     7     7     8   ar
     8     8     9   ar
     9     9    10   ar
    10    10    11    1
    11    11    12   ar
    12    12    13   ar
    13    13    14   ar
    14    14    15   ar
    15    15    16   ar
    16    10    17   ar
    17    17    18   ar
    18     6    19   ar
    19    19    20   ar
    20    20    21   ar
    21    21     1   ar
    22    20     4   ar
    23    18     7   ar
    24    16    11   ar
    25     1    22    1
    26     2    23    1
    27     3    24    1
    28     8    25    1
    29     9    26    1
    30    12    27    1
    31    14    28    1
    32    15    29    1
    33    17    30    1
    34    18    31    1
    35    21    32    1
