@<TRIPOS>MOLECULE
*****
 45 50 0 0 0
SMALL
GASTEIGER

@<TRIPOS>ATOM
      1 C           7.5053    0.4532    2.1487 C.ar    1  UNL1       -0.0597
      2 C           7.9759   -0.2412    1.0388 C.ar    1  UNL1       -0.0606
      3 C           7.0942   -0.7098    0.0596 C.ar    1  UNL1       -0.0459
      4 C           5.7218   -0.4604    0.2270 C.ar    1  UNL1        0.0395
      5 S           4.4063   -0.9005   -0.7861 S.2     1  UNL1       -0.0672
      6 C           3.2944   -0.1506    0.2963 C.ar    1  UNL1        0.1094
      7 C           1.8364   -0.1352    0.0428 C.ar    1  UNL1        0.0073
      8 C           0.9961    0.4985    0.9769 C.ar    1  UNL1       -0.0503
      9 C          -0.3899    0.5475    0.7953 C.ar    1  UNL1       -0.0394
     10 C          -0.9740   -0.0393   -0.3311 C.ar    1  UNL1        0.0390
     11 N          -2.3863    0.0071   -0.5222 N.pl3   1  UNL1       -0.2627
     12 C          -3.2391   -1.0263   -0.0135 C.ar    1  UNL1        0.0813
     13 C          -2.7539   -2.1323    0.7061 C.ar    1  UNL1       -0.0364
     14 C          -3.6226   -3.1190    1.1847 C.ar    1  UNL1       -0.0598
     15 C          -4.9916   -3.0184    0.9531 C.ar    1  UNL1       -0.0582
     16 C          -5.4932   -1.9308    0.2428 C.ar    1  UNL1       -0.0175
     17 C          -4.6238   -0.9449   -0.2349 C.ar    1  UNL1        0.1501
     18 O          -5.2154    0.0889   -0.9242 O.3     1  UNL1       -0.4523
     19 C          -4.3982    1.0843   -1.4094 C.ar    1  UNL1        0.1501
     20 C          -5.0434    2.1157   -2.0993 C.ar    1  UNL1       -0.0175
     21 C          -4.3037    3.1700   -2.6288 C.ar    1  UNL1       -0.0582
     22 C          -2.9211    3.1918   -2.4680 C.ar    1  UNL1       -0.0598
     23 C          -2.2769    2.1593   -1.7779 C.ar    1  UNL1       -0.0364
     24 C          -3.0044    1.0854   -1.2358 C.ar    1  UNL1        0.0813
     25 C          -0.1519   -0.6734   -1.2694 C.ar    1  UNL1       -0.0394
     26 C           1.2356   -0.7206   -1.0845 C.ar    1  UNL1       -0.0503
     27 N           3.8546    0.4006    1.3565 N.ar    1  UNL1       -0.2390
     28 C           5.2278    0.2329    1.3304 C.ar    1  UNL1        0.0789
     29 C           6.1364    0.6952    2.3040 C.ar    1  UNL1       -0.0352
     30 H           8.2030    0.8115    2.9020 H       1  UNL1        0.0618
     31 H           9.0432   -0.4230    0.9297 H       1  UNL1        0.0618
     32 H           7.4625   -1.2516   -0.8061 H       1  UNL1        0.0629
     33 H           1.4230    0.9645    1.8645 H       1  UNL1        0.0625
     34 H          -1.0145    1.0441    1.5339 H       1  UNL1        0.0636
     35 H          -1.6921   -2.2445    0.9078 H       1  UNL1        0.0637
     36 H          -3.2253   -3.9654    1.7396 H       1  UNL1        0.0618
     37 H          -5.6665   -3.7847    1.3252 H       1  UNL1        0.0619
     38 H          -6.5608   -1.8466    0.0594 H       1  UNL1        0.0655
     39 H          -6.1228    2.0934   -2.2211 H       1  UNL1        0.0655
     40 H          -4.8043    3.9722   -3.1645 H       1  UNL1        0.0619
     41 H          -2.3385    4.0130   -2.8783 H       1  UNL1        0.0618
     42 H          -1.1967    2.2118   -1.6715 H       1  UNL1        0.0637
     43 H          -0.5955   -1.1333   -2.1496 H       1  UNL1        0.0636
     44 H           1.8261   -1.2258   -1.8443 H       1  UNL1        0.0625
     45 H           5.7640    1.2365    3.1680 H       1  UNL1        0.0639
@<TRIPOS>BOND
     1     1     2   ar
     2     2     3   ar
     3     3     4   ar
     4     4     5   ar
     5     5     6   ar
     6     6     7    1
     7     7     8   ar
     8     8     9   ar
     9     9    10   ar
    10    10    11    1
    11    11    12    1
    12    12    13   ar
    13    13    14   ar
    14    14    15   ar
    15    15    16   ar
    16    16    17   ar
    17    17    18    1
    18    18    19    1
    19    19    20   ar
    20    20    21   ar
    21    21    22   ar
    22    22    23   ar
    23    23    24   ar
    24    10    25   ar
    25    25    26   ar
    26     6    27   ar
    27    27    28   ar
    28    28    29   ar
    29    29     1   ar
    30    28     4   ar
    31    26     7   ar
    32    24    11    1
    33    17    12   ar
    34    24    19   ar
    35     1    30    1
    36     2    31    1
    37     3    32    1
    38     8    33    1
    39     9    34    1
    40    13    35    1
    41    14    36    1
    42    15    37    1
    43    16    38    1
    44    20    39    1
    45    21    40    1
    46    22    41    1
    47    23    42    1
    48    25    43    1
    49    26    44    1
    50    29    45    1
