@<TRIPOS>MOLECULE
*****
 27 30 0 0 0
SMALL
GASTEIGER

@<TRIPOS>ATOM
      1 C           4.8821   -0.8151    0.4606 C.ar    1  UNL1       -0.0611
      2 C           5.0026    0.2142   -0.4626 C.ar    1  UNL1       -0.0607
      3 C           3.8680    0.8690   -0.9472 C.ar    1  UNL1       -0.0474
      4 C           2.5998    0.4679   -0.4838 C.ar    1  UNL1        0.0199
      5 S           1.0780    1.1192   -0.9324 S.2     1  UNL1       -0.0882
      6 C           0.1904    0.0558    0.0861 C.ar    1  UNL1        0.0205
      7 C          -1.2940    0.1120    0.1622 C.ar    1  UNL1       -0.0091
      8 C          -1.9911   -0.7770    1.0096 C.ar    1  UNL1       -0.0514
      9 C          -3.3910   -0.7818    1.1325 C.ar    1  UNL1       -0.0341
     10 C          -4.0778    0.1512    0.3635 C.ar    1  UNL1        0.0858
     11 N          -5.4011    0.4530    0.2082 N.ar    1  UNL1       -0.2571
     12 N          -5.5874    1.4558   -0.6652 N.ar    1  UNL1       -0.0673
     13 N          -4.3903    1.8311   -1.0995 N.ar    1  UNL1       -0.1297
     14 C          -3.4494    1.0480   -0.4849 C.ar    1  UNL1        0.1130
     15 C          -2.0496    1.0350   -0.5921 C.ar    1  UNL1       -0.0242
     16 C           1.0693   -0.7820    0.7547 C.ar    1  UNL1       -0.0392
     17 C           2.4537   -0.5619    0.4420 C.ar    1  UNL1       -0.0102
     18 C           3.6203   -1.2086    0.9166 C.ar    1  UNL1       -0.0535
     19 H           5.7712   -1.3188    0.8319 H       1  UNL1        0.0618
     20 H           5.9869    0.5155   -0.8133 H       1  UNL1        0.0618
     21 H           3.9638    1.6745   -1.6697 H       1  UNL1        0.0629
     22 H          -1.4475   -1.5048    1.6087 H       1  UNL1        0.0624
     23 H          -3.8971   -1.4778    1.7926 H       1  UNL1        0.0639
     24 H          -6.2104    0.0338    0.6485 H       1  UNL1        0.1907
     25 H          -1.5931    1.7509   -1.2656 H       1  UNL1        0.0646
     26 H           0.7553   -1.5432    1.4565 H       1  UNL1        0.0635
     27 H           3.5381   -2.0160    1.6398 H       1  UNL1        0.0624
@<TRIPOS>BOND
     1     1     2   ar
     2     2     3   ar
     3     3     4   ar
     4     4     5   ar
     5     5     6   ar
     6     6     7    1
     7     7     8   ar
     8     8     9   ar
     9     9    10   ar
    10    10    11   ar
    11    11    12   ar
    12    12    13   ar
    13    13    14   ar
    14    14    15   ar
    15     6    16   ar
    16    16    17   ar
    17    17    18   ar
    18    18     1   ar
    19    17     4   ar
    20    15     7   ar
    21    14    10   ar
    22     1    19    1
    23     2    20    1
    24     3    21    1
    25     8    22    1
    26     9    23    1
    27    11    24    1
    28    15    25    1
    29    16    26    1
    30    18    27    1
