@<TRIPOS>MOLECULE
*****
 26 29 0 0 0
SMALL
GASTEIGER

@<TRIPOS>ATOM
      1 C           4.6699    0.9648   -0.8659 C.ar    1  UNL1       -0.0597
      2 C           5.0052   -0.2714   -0.3226 C.ar    1  UNL1       -0.0606
      3 C           4.0158   -1.1363    0.1555 C.ar    1  UNL1       -0.0459
      4 C           2.6755   -0.7234    0.0723 C.ar    1  UNL1        0.0395
      5 S           1.2524   -1.5484    0.5667 S.2     1  UNL1       -0.0672
      6 C           0.2783   -0.2295    0.0364 C.ar    1  UNL1        0.1095
      7 C          -1.1974   -0.2386    0.1588 C.ar    1  UNL1        0.0093
      8 C          -1.9155    0.8864   -0.3027 C.ar    1  UNL1       -0.0499
      9 C          -3.3138    0.9797   -0.2337 C.ar    1  UNL1       -0.0341
     10 C          -3.9713   -0.1129    0.3228 C.ar    1  UNL1        0.0858
     11 N          -5.2865   -0.3979    0.5596 N.ar    1  UNL1       -0.2571
     12 N          -5.4432   -1.6042    1.1285 N.ar    1  UNL1       -0.0673
     13 N          -4.2349   -2.1340    1.2761 N.ar    1  UNL1       -0.1296
     14 C          -3.3166   -1.2414    0.7910 C.ar    1  UNL1        0.1131
     15 C          -1.9170   -1.3160    0.7133 C.ar    1  UNL1       -0.0227
     16 N           0.9582    0.7760   -0.4817 N.ar    1  UNL1       -0.2390
     17 C           2.3162    0.5100   -0.4677 C.ar    1  UNL1        0.0789
     18 C           3.3317    1.3645   -0.9431 C.ar    1  UNL1       -0.0352
     19 H           5.4505    1.6267   -1.2336 H       1  UNL1        0.0618
     20 H           6.0500   -0.5707   -0.2682 H       1  UNL1        0.0618
     21 H           4.2784   -2.1008    0.5793 H       1  UNL1        0.0629
     22 H          -1.3684    1.7268   -0.7341 H       1  UNL1        0.0625
     23 H          -3.8396    1.8563   -0.5960 H       1  UNL1        0.0639
     24 H          -6.1082    0.1614    0.3674 H       1  UNL1        0.1907
     25 H          -1.4350   -2.2114    1.0877 H       1  UNL1        0.0647
     26 H           3.0651    2.3279   -1.3660 H       1  UNL1        0.0639
@<TRIPOS>BOND
     1     1     2   ar
     2     2     3   ar
     3     3     4   ar
     4     4     5   ar
     5     5     6   ar
     6     6     7    1
     7     7     8   ar
     8     8     9   ar
     9     9    10   ar
    10    10    11   ar
    11    11    12   ar
    12    12    13   ar
    13    13    14   ar
    14    14    15   ar
    15     6    16   ar
    16    16    17   ar
    17    17    18   ar
    18    18     1   ar
    19    17     4   ar
    20    15     7   ar
    21    14    10   ar
    22     1    19    1
    23     2    20    1
    24     3    21    1
    25     8    22    1
    26     9    23    1
    27    11    24    1
    28    15    25    1
    29    18    26    1
