@<TRIPOS>MOLECULE
*****
 34 38 0 0 0
SMALL
GASTEIGER

@<TRIPOS>ATOM
      1 C           6.3509    0.6825   -0.6998 C.ar    1  UNL1       -0.0611
      2 C           6.5802   -0.3423    0.2075 C.ar    1  UNL1       -0.0607
      3 C           5.5109   -1.0092    0.8097 C.ar    1  UNL1       -0.0474
      4 C           4.1961   -0.6248    0.4812 C.ar    1  UNL1        0.0199
      5 S           2.7378   -1.2930    1.0882 S.2     1  UNL1       -0.0882
      6 C           1.7351   -0.2435    0.1664 C.ar    1  UNL1        0.0205
      7 C           0.2508   -0.3153    0.2443 C.ar    1  UNL1       -0.0093
      8 C          -0.4155   -1.2379    1.0696 C.ar    1  UNL1       -0.0528
      9 C          -1.8175   -1.3054    1.1430 C.ar    1  UNL1       -0.0514
     10 C          -2.5944   -0.4259    0.3698 C.ar    1  UNL1        0.0090
     11 C          -1.9339    0.4896   -0.4491 C.ar    1  UNL1        0.0492
     12 C          -0.5335    0.5650   -0.5294 C.ar    1  UNL1       -0.0295
     13 N          -2.9021    1.2262   -1.0935 N.ar    1  UNL1       -0.3390
     14 C          -4.1475    0.8137   -0.7155 C.ar    1  UNL1        0.1391
     15 N          -5.2955    1.3446   -1.1757 N.ar    1  UNL1       -0.2375
     16 C          -6.3932    0.7585   -0.6449 C.ar    1  UNL1        0.0299
     17 C          -6.3924   -0.2806    0.2773 C.ar    1  UNL1       -0.0429
     18 C          -5.1717   -0.7924    0.7198 C.ar    1  UNL1       -0.0490
     19 C          -3.9977   -0.2199    0.2004 C.ar    1  UNL1        0.0264
     20 C           2.5292    0.6025   -0.5921 C.ar    1  UNL1       -0.0392
     21 C           3.9411    0.4001   -0.4261 C.ar    1  UNL1       -0.0102
     22 C           5.0435    1.0593   -1.0217 C.ar    1  UNL1       -0.0535
     23 H           7.1897    1.1958   -1.1635 H       1  UNL1        0.0618
     24 H           7.5996   -0.6305    0.4536 H       1  UNL1        0.0618
     25 H           5.6918   -1.8111    1.5197 H       1  UNL1        0.0629
     26 H           0.1386   -1.9404    1.6878 H       1  UNL1        0.0624
     27 H          -2.2913   -2.0342    1.7943 H       1  UNL1        0.0624
     28 H          -0.0812    1.2999   -1.1860 H       1  UNL1        0.0644
     29 H          -2.7400    1.9694   -1.7547 H       1  UNL1        0.1673
     30 H          -7.3362    1.1685   -0.9997 H       1  UNL1        0.0830
     31 H          -7.3279   -0.6866    0.6467 H       1  UNL1        0.0633
     32 H          -5.1320   -1.6031    1.4391 H       1  UNL1        0.0625
     33 H           2.1329    1.3573   -1.2583 H       1  UNL1        0.0635
     34 H           4.8756    1.8633   -1.7337 H       1  UNL1        0.0624
@<TRIPOS>BOND
     1     1     2   ar
     2     2     3   ar
     3     3     4   ar
     4     4     5   ar
     5     5     6   ar
     6     6     7    1
     7     7     8   ar
     8     8     9   ar
     9     9    10   ar
    10    10    11   ar
    11    11    12   ar
    12    11    13   ar
    13    13    14   ar
    14    14    15   ar
    15    15    16   ar
    16    16    17   ar
    17    17    18   ar
    18    18    19   ar
    19     6    20   ar
    20    20    21   ar
    21    21    22   ar
    22    22     1   ar
    23    21     4   ar
    24    12     7   ar
    25    19    14   ar
    26    19    10   ar
    27     1    23    1
    28     2    24    1
    29     3    25    1
    30     8    26    1
    31     9    27    1
    32    12    28    1
    33    13    29    1
    34    16    30    1
    35    17    31    1
    36    18    32    1
    37    20    33    1
    38    22    34    1
