@<TRIPOS>MOLECULE
*****
 33 37 0 0 0
SMALL
GASTEIGER

@<TRIPOS>ATOM
      1 C          -6.3367   -1.1391    0.0052 C.ar    1  UNL1       -0.0597
      2 C          -6.5701    0.2323   -0.0140 C.ar    1  UNL1       -0.0606
      3 C          -5.5065    1.1400   -0.0424 C.ar    1  UNL1       -0.0459
      4 C          -4.1975    0.6298   -0.0510 C.ar    1  UNL1        0.0395
      5 S          -2.7026    1.4750   -0.0839 S.2     1  UNL1       -0.0672
      6 C          -1.8352   -0.0148   -0.0709 C.ar    1  UNL1        0.1095
      7 C          -0.3542   -0.0663   -0.0891 C.ar    1  UNL1        0.0091
      8 C           0.2695   -1.3259   -0.0767 C.ar    1  UNL1       -0.0513
      9 C           1.6652   -1.4694   -0.0923 C.ar    1  UNL1       -0.0513
     10 C           2.4749   -0.3200   -0.1214 C.ar    1  UNL1        0.0090
     11 C           1.8522    0.9294   -0.1337 C.ar    1  UNL1        0.0492
     12 C           0.4561    1.0856   -0.1183 C.ar    1  UNL1       -0.0280
     13 N           2.8507    1.8771   -0.1619 N.ar    1  UNL1       -0.3390
     14 C           4.0781    1.2790   -0.1680 C.ar    1  UNL1        0.1391
     15 N           5.2470    1.9456   -0.1939 N.ar    1  UNL1       -0.2375
     16 C           6.3199    1.1215   -0.1943 C.ar    1  UNL1        0.0299
     17 C           6.2764   -0.2669   -0.1712 C.ar    1  UNL1       -0.0429
     18 C           5.0355   -0.9051   -0.1449 C.ar    1  UNL1       -0.0490
     19 C           3.8859   -0.0963   -0.1432 C.ar    1  UNL1        0.0264
     20 N          -2.6014   -1.0893   -0.0436 N.ar    1  UNL1       -0.2390
     21 C          -3.9400   -0.7396   -0.0321 C.ar    1  UNL1        0.0789
     22 C          -5.0287   -1.6346   -0.0035 C.ar    1  UNL1       -0.0352
     23 H          -7.1738   -1.8329    0.0273 H       1  UNL1        0.0618
     24 H          -7.5923    0.6051   -0.0069 H       1  UNL1        0.0618
     25 H          -5.6897    2.2100   -0.0574 H       1  UNL1        0.0629
     26 H          -0.3398   -2.2297   -0.0541 H       1  UNL1        0.0624
     27 H           2.1091   -2.4607   -0.0819 H       1  UNL1        0.0624
     28 H           0.0331    2.0846   -0.1291 H       1  UNL1        0.0645
     29 H           2.7199    2.8764   -0.1765 H       1  UNL1        0.1673
     30 H           7.2791    1.6342   -0.2150 H       1  UNL1        0.0830
     31 H           7.1945   -0.8444   -0.1736 H       1  UNL1        0.0633
     32 H           4.9626   -1.9871   -0.1263 H       1  UNL1        0.0625
     33 H          -4.8410   -2.7035    0.0114 H       1  UNL1        0.0639
@<TRIPOS>BOND
     1     1     2   ar
     2     2     3   ar
     3     3     4   ar
     4     4     5   ar
     5     5     6   ar
     6     6     7    1
     7     7     8   ar
     8     8     9   ar
     9     9    10   ar
    10    10    11   ar
    11    11    12   ar
    12    11    13   ar
    13    13    14   ar
    14    14    15   ar
    15    15    16   ar
    16    16    17   ar
    17    17    18   ar
    18    18    19   ar
    19     6    20   ar
    20    20    21   ar
    21    21    22   ar
    22    22     1   ar
    23    21     4   ar
    24    12     7   ar
    25    19    14   ar
    26    19    10   ar
    27     1    23    1
    28     2    24    1
    29     3    25    1
    30     8    26    1
    31     9    27    1
    32    12    28    1
    33    13    29    1
    34    16    30    1
    35    17    31    1
    36    18    32    1
    37    22    33    1
