@<TRIPOS>MOLECULE
*****
 34 38 0 0 0
SMALL
GASTEIGER

@<TRIPOS>ATOM
      1 C           6.5105   -0.5403    0.6725 C.ar    1  UNL1       -0.0611
      2 C           6.7035    0.5401   -0.1770 C.ar    1  UNL1       -0.0607
      3 C           5.6115    1.1949   -0.7513 C.ar    1  UNL1       -0.0474
      4 C           4.3115    0.7411   -0.4542 C.ar    1  UNL1        0.0199
      5 S           2.8308    1.3818   -1.0363 S.2     1  UNL1       -0.0882
      6 C           1.8666    0.2449   -0.1797 C.ar    1  UNL1        0.0205
      7 C           0.3823    0.2615   -0.2657 C.ar    1  UNL1       -0.0102
      8 C          -0.3176    1.1928   -1.0403 C.ar    1  UNL1       -0.0529
      9 C          -1.7194    1.1940   -1.1100 C.ar    1  UNL1       -0.0523
     10 C          -2.4821    0.2433   -0.3917 C.ar    1  UNL1       -0.0031
     11 C          -1.7860   -0.6833    0.3790 C.ar    1  UNL1        0.0211
     12 C          -0.3738   -0.6850    0.4496 C.ar    1  UNL1       -0.0392
     13 S          -2.8531   -1.7601    1.1826 S.2     1  UNL1       -0.0882
     14 C          -4.2516   -1.0175    0.5237 C.ar    1  UNL1        0.0205
     15 C          -5.5919   -1.3889    0.7532 C.ar    1  UNL1       -0.0474
     16 C          -6.6123   -0.6682    0.1302 C.ar    1  UNL1       -0.0607
     17 C          -6.3115    0.3985   -0.7029 C.ar    1  UNL1       -0.0611
     18 C          -4.9803    0.7625   -0.9270 C.ar    1  UNL1       -0.0529
     19 C          -3.9181    0.0510   -0.3093 C.ar    1  UNL1       -0.0031
     20 C           2.6895   -0.6081    0.5389 C.ar    1  UNL1       -0.0392
     21 C           4.0929   -0.3405    0.3950 C.ar    1  UNL1       -0.0102
     22 C           5.2176   -0.9860    0.9634 C.ar    1  UNL1       -0.0535
     23 H           7.3667   -1.0438    1.1148 H       1  UNL1        0.0618
     24 H           7.7117    0.8816   -0.3991 H       1  UNL1        0.0618
     25 H           5.7641    2.0404   -1.4160 H       1  UNL1        0.0629
     26 H           0.2033    1.9524   -1.6185 H       1  UNL1        0.0624
     27 H          -2.2181    1.9383   -1.7262 H       1  UNL1        0.0624
     28 H           0.1076   -1.4350    1.0694 H       1  UNL1        0.0635
     29 H          -5.8298   -2.2245    1.4057 H       1  UNL1        0.0629
     30 H          -7.6493   -0.9475    0.3014 H       1  UNL1        0.0618
     31 H          -7.1116    0.9552   -1.1848 H       1  UNL1        0.0618
     32 H          -4.7617    1.6013   -1.5830 H       1  UNL1        0.0624
     33 H           2.3203   -1.4131    1.1609 H       1  UNL1        0.0635
     34 H           5.0781   -1.8332    1.6301 H       1  UNL1        0.0624
@<TRIPOS>BOND
     1     1     2   ar
     2     2     3   ar
     3     3     4   ar
     4     4     5   ar
     5     5     6   ar
     6     6     7    1
     7     7     8   ar
     8     8     9   ar
     9     9    10   ar
    10    10    11   ar
    11    11    12   ar
    12    11    13   ar
    13    13    14   ar
    14    14    15   ar
    15    15    16   ar
    16    16    17   ar
    17    17    18   ar
    18    18    19   ar
    19     6    20   ar
    20    20    21   ar
    21    21    22   ar
    22    22     1   ar
    23    21     4   ar
    24    12     7   ar
    25    19    14   ar
    26    19    10   ar
    27     1    23    1
    28     2    24    1
    29     3    25    1
    30     8    26    1
    31     9    27    1
    32    12    28    1
    33    15    29    1
    34    16    30    1
    35    17    31    1
    36    18    32    1
    37    20    33    1
    38    22    34    1
