@<TRIPOS>MOLECULE
*****
 33 37 0 0 0
SMALL
GASTEIGER

@<TRIPOS>ATOM
      1 C           6.3778   -1.0873    0.2204 C.ar    1  UNL1       -0.0597
      2 C           6.7076    0.0906   -0.4425 C.ar    1  UNL1       -0.0606
      3 C           5.7120    0.9718   -0.8763 C.ar    1  UNL1       -0.0459
      4 C           4.3713    0.6355   -0.6248 C.ar    1  UNL1        0.0395
      5 S           2.9412    1.4980   -1.0267 S.2     1  UNL1       -0.0672
      6 C           1.9718    0.2696   -0.3041 C.ar    1  UNL1        0.1095
      7 C           0.4935    0.3467   -0.2726 C.ar    1  UNL1        0.0082
      8 C          -0.2376    1.4056   -0.8171 C.ar    1  UNL1       -0.0514
      9 C          -1.6393    1.4299   -0.7605 C.ar    1  UNL1       -0.0523
     10 C          -2.3617    0.3772   -0.1466 C.ar    1  UNL1       -0.0031
     11 C          -1.6274   -0.6755    0.3944 C.ar    1  UNL1        0.0211
     12 C          -0.2175   -0.7023    0.3386 C.ar    1  UNL1       -0.0377
     13 S          -2.6496   -1.8605    1.0958 S.2     1  UNL1       -0.0882
     14 C          -4.0793   -1.0017    0.6959 C.ar    1  UNL1        0.0205
     15 C          -5.4043   -1.3921    0.9764 C.ar    1  UNL1       -0.0474
     16 C          -6.4552   -0.5655    0.5752 C.ar    1  UNL1       -0.0607
     17 C          -6.1991    0.6237   -0.0902 C.ar    1  UNL1       -0.0611
     18 C          -4.8828    1.0061   -0.3658 C.ar    1  UNL1       -0.0529
     19 C          -3.7903    0.1889    0.0281 C.ar    1  UNL1       -0.0031
     20 N           2.6589   -0.7323    0.2114 N.ar    1  UNL1       -0.2390
     21 C           4.0177   -0.5387    0.0372 C.ar    1  UNL1        0.0789
     22 C           5.0391   -1.4109    0.4648 C.ar    1  UNL1       -0.0352
     23 H           7.1628   -1.7629    0.5519 H       1  UNL1        0.0618
     24 H           7.7528    0.3308   -0.6265 H       1  UNL1        0.0618
     25 H           5.9705    1.8907   -1.3935 H       1  UNL1        0.0629
     26 H           0.2555    2.2446   -1.3022 H       1  UNL1        0.0624
     27 H          -2.1732    2.2715   -1.1956 H       1  UNL1        0.0624
     28 H           0.3187   -1.5443    0.7740 H       1  UNL1        0.0635
     29 H          -5.6070   -2.3237    1.4977 H       1  UNL1        0.0629
     30 H          -7.4807   -0.8589    0.7875 H       1  UNL1        0.0618
     31 H          -7.0228    1.2624   -0.3995 H       1  UNL1        0.0618
     32 H          -4.6997    1.9416   -0.8883 H       1  UNL1        0.0624
     33 H           4.7763   -2.3286    0.9816 H       1  UNL1        0.0639
@<TRIPOS>BOND
     1     1     2   ar
     2     2     3   ar
     3     3     4   ar
     4     4     5   ar
     5     5     6   ar
     6     6     7    1
     7     7     8   ar
     8     8     9   ar
     9     9    10   ar
    10    10    11   ar
    11    11    12   ar
    12    11    13   ar
    13    13    14   ar
    14    14    15   ar
    15    15    16   ar
    16    16    17   ar
    17    17    18   ar
    18    18    19   ar
    19     6    20   ar
    20    20    21   ar
    21    21    22   ar
    22    22     1   ar
    23    21     4   ar
    24    12     7   ar
    25    19    14   ar
    26    19    10   ar
    27     1    23    1
    28     2    24    1
    29     3    25    1
    30     8    26    1
    31     9    27    1
    32    12    28    1
    33    15    29    1
    34    16    30    1
    35    17    31    1
    36    18    32    1
    37    22    33    1
