@<TRIPOS>MOLECULE
*****
 29 32 0 0 0
SMALL
GASTEIGER

@<TRIPOS>ATOM
      1 C           5.3639    0.8506   -0.3445 C.ar    1  UNL1       -0.0611
      2 C           5.4357   -0.5352   -0.3668 C.ar    1  UNL1       -0.0607
      3 C           4.2725   -1.3068   -0.3177 C.ar    1  UNL1       -0.0474
      4 C           3.0255   -0.6557   -0.2453 C.ar    1  UNL1        0.0199
      5 S           1.4758   -1.3874   -0.1760 S.2     1  UNL1       -0.0882
      6 C           0.6410    0.1136   -0.1133 C.ar    1  UNL1        0.0205
      7 C          -0.8407    0.1755   -0.0368 C.ar    1  UNL1       -0.0091
      8 C          -1.4960    1.4129    0.0131 C.ar    1  UNL1       -0.0514
      9 C          -2.8917    1.4902    0.0854 C.ar    1  UNL1       -0.0336
     10 C          -3.6765    0.3498    0.1103 C.ar    1  UNL1        0.0892
     11 N          -5.0178    0.4648    0.1803 N.ar    1  UNL1       -0.2519
     12 C          -5.7170   -0.6900    0.2007 C.ar    1  UNL1        0.0464
     13 C          -5.1009   -1.9228    0.1528 C.ar    1  UNL1        0.0464
     14 N          -3.7588   -2.0545    0.0825 N.ar    1  UNL1       -0.2519
     15 C          -3.0415   -0.9126    0.0611 C.ar    1  UNL1        0.0897
     16 C          -1.6514   -0.9733   -0.0107 C.ar    1  UNL1       -0.0260
     17 C           1.5569    1.1532   -0.1461 C.ar    1  UNL1       -0.0392
     18 C           2.9282    0.7332   -0.2217 C.ar    1  UNL1       -0.0102
     19 C           4.1231    1.4910   -0.2726 C.ar    1  UNL1       -0.0535
     20 H           6.2750    1.4427   -0.3832 H       1  UNL1        0.0618
     21 H           6.4040   -1.0271   -0.4228 H       1  UNL1        0.0618
     22 H           4.3302   -2.3914   -0.3353 H       1  UNL1        0.0629
     23 H          -0.9422    2.3477   -0.0027 H       1  UNL1        0.0624
     24 H          -3.3752    2.4634    0.1230 H       1  UNL1        0.0640
     25 H          -6.7950   -0.5941    0.2570 H       1  UNL1        0.0845
     26 H          -5.6701   -2.8449    0.1696 H       1  UNL1        0.0845
     27 H          -1.2144   -1.9683   -0.0463 H       1  UNL1        0.0646
     28 H           1.2783    2.1984   -0.1179 H       1  UNL1        0.0635
     29 H           4.0790    2.5770   -0.2558 H       1  UNL1        0.0624
@<TRIPOS>BOND
     1     1     2   ar
     2     2     3   ar
     3     3     4   ar
     4     4     5   ar
     5     5     6   ar
     6     6     7    1
     7     7     8   ar
     8     8     9   ar
     9     9    10   ar
    10    10    11   ar
    11    11    12   ar
    12    12    13   ar
    13    13    14   ar
    14    14    15   ar
    15    15    16   ar
    16     6    17   ar
    17    17    18   ar
    18    18    19   ar
    19    19     1   ar
    20    18     4   ar
    21    16     7   ar
    22    15    10   ar
    23     1    20    1
    24     2    21    1
    25     3    22    1
    26     8    23    1
    27     9    24    1
    28    12    25    1
    29    13    26    1
    30    16    27    1
    31    17    28    1
    32    19    29    1
