@<TRIPOS>MOLECULE
*****
 28 31 0 0 0
SMALL
GASTEIGER

@<TRIPOS>ATOM
      1 C          -5.0500    0.3126   -1.1860 C.ar    1  UNL1       -0.0597
      2 C          -5.4679   -0.3005   -0.0091 C.ar    1  UNL1       -0.0606
      3 C          -4.5401   -0.7172    0.9507 C.ar    1  UNL1       -0.0459
      4 C          -3.1759   -0.5000    0.6943 C.ar    1  UNL1        0.0395
      5 S          -1.8123   -0.8924    1.6628 S.2     1  UNL1       -0.0672
      6 C          -0.7530   -0.2318    0.4752 C.ar    1  UNL1        0.1095
      7 C           0.7158   -0.2212    0.6476 C.ar    1  UNL1        0.0093
      8 C           1.3716   -0.7371    1.7710 C.ar    1  UNL1       -0.0499
      9 C           2.7674   -0.6918    1.8642 C.ar    1  UNL1       -0.0336
     10 C           3.5432   -0.1394    0.8567 C.ar    1  UNL1        0.0892
     11 N           4.8843   -0.1161    0.9868 N.ar    1  UNL1       -0.2519
     12 C           5.5752    0.4368   -0.0331 C.ar    1  UNL1        0.0464
     13 C           4.9512    0.9517   -1.1501 C.ar    1  UNL1        0.0464
     14 N           3.6090    0.9361   -1.2959 N.ar    1  UNL1       -0.2519
     15 C           2.9002    0.3880   -0.2882 C.ar    1  UNL1        0.0898
     16 C           1.5126    0.3367   -0.3683 C.ar    1  UNL1       -0.0245
     17 N          -1.3628    0.2568   -0.5872 N.ar    1  UNL1       -0.2390
     18 C          -2.7345    0.1120   -0.4773 C.ar    1  UNL1        0.0789
     19 C          -3.6888    0.5233   -1.4297 C.ar    1  UNL1       -0.0352
     20 H          -5.7832    0.6314   -1.9233 H       1  UNL1        0.0618
     21 H          -6.5298   -0.4585    0.1683 H       1  UNL1        0.0618
     22 H          -4.8675   -1.1956    1.8687 H       1  UNL1        0.0629
     23 H           0.8245   -1.1842    2.5973 H       1  UNL1        0.0625
     24 H           3.2607   -1.0975    2.7446 H       1  UNL1        0.0640
     25 H           6.6534    0.4539    0.0749 H       1  UNL1        0.0845
     26 H           5.5138    1.3937   -1.9641 H       1  UNL1        0.0845
     27 H           1.0402    0.7492   -1.2596 H       1  UNL1        0.0646
     28 H          -3.3574    1.0012   -2.3462 H       1  UNL1        0.0639
@<TRIPOS>BOND
     1     1     2   ar
     2     2     3   ar
     3     3     4   ar
     4     4     5   ar
     5     5     6   ar
     6     6     7    1
     7     7     8   ar
     8     8     9   ar
     9     9    10   ar
    10    10    11   ar
    11    11    12   ar
    12    12    13   ar
    13    13    14   ar
    14    14    15   ar
    15    15    16   ar
    16     6    17   ar
    17    17    18   ar
    18    18    19   ar
    19    19     1   ar
    20    18     4   ar
    21    16     7   ar
    22    15    10   ar
    23     1    20    1
    24     2    21    1
    25     3    22    1
    26     8    23    1
    27     9    24    1
    28    12    25    1
    29    13    26    1
    30    16    27    1
    31    19    28    1
