@<TRIPOS>MOLECULE
*****
 45 52 0 0 0
SMALL
GASTEIGER

@<TRIPOS>ATOM
      1 SI         -3.5411   -3.9025   -0.4843 Si      1  UNL1        0.0000
      2 C          -4.7894   -2.6188    0.0037 C.2     1  UNL1        0.0000
      3 C          -4.2269   -1.3984    0.0889 C.ar    1  UNL1        0.0000
      4 C          -4.9260   -0.1736    0.2482 C.ar    1  UNL1        0.0000
      5 C          -6.2716    0.1689    0.4816 C.ar    1  UNL1        0.0000
      6 C          -6.3010    1.5489    0.4947 C.ar    1  UNL1        0.0000
      7 O          -5.0567    2.0647    0.2816 O.2     1  UNL1        0.0000
      8 C          -4.2276    1.0036    0.1238 C.ar    1  UNL1        0.0000
      9 C          -2.8005    1.1566   -0.0765 C.ar    1  UNL1        0.0000
     10 C          -2.1768    2.4231   -0.2110 C.ar    1  UNL1        0.0000
     11 N          -2.7596    3.6329   -0.2846 N.ar    1  UNL1        0.0000
     12 S          -1.5590    4.7533   -0.4583 S.2     1  UNL1        0.0000
     13 N          -0.2283    3.7693   -0.4394 N.ar    1  UNL1        0.0000
     14 C          -0.6766    2.5089   -0.2890 C.ar    1  UNL1        0.0000
     15 C           0.1334    1.3317   -0.1756 C.ar    1  UNL1        0.0000
     16 C           1.5405    1.4397   -0.1776 C.ar    1  UNL1        0.0000
     17 C           2.3076    0.3026    0.0141 C.ar    1  UNL1        0.0000
     18 N           1.7286   -0.8974    0.2242 N.ar    1  UNL1        0.0000
     19 C           0.3698   -0.9716    0.2132 C.ar    1  UNL1        0.0000
     20 C          -0.5269    0.0803   -0.0304 C.ar    1  UNL1        0.0000
     21 C          -1.9732   -0.0247   -0.0838 C.ar    1  UNL1        0.0000
     22 C          -2.7422   -1.3407   -0.1498 C.ar    1  UNL1        0.0000
     23 C          -2.2556   -2.5332   -0.5619 C.2     1  UNL1        0.0000
     24 C           3.7678    0.3370   -0.0066 C.ar    1  UNL1        0.0000
     25 C           4.5282    1.0102   -1.0070 C.ar    1  UNL1        0.0000
     26 C           5.9597    1.0636   -1.0506 C.ar    1  UNL1        0.0000
     27 C           6.7958    0.4525   -0.0965 C.ar    1  UNL1        0.0000
     28 C           6.0612   -0.2058    0.8882 C.ar    1  UNL1        0.0000
     29 C           6.6682   -0.8661    1.9280 C.ar    1  UNL1        0.0000
     30 S           5.5080   -1.5604    2.9862 S.2     1  UNL1        0.0000
     31 C           4.1926   -0.9735    2.0472 C.ar    1  UNL1        0.0000
     32 C           4.6171   -0.2707    0.9417 C.ar    1  UNL1        0.0000
     33 H          -3.8109   -4.4861   -1.8192 H       1  UNL1        0.0000
     34 H          -3.2547   -4.8670    0.6034 H       1  UNL1        0.0000
     35 H          -5.8369   -2.8590    0.0947 H       1  UNL1        0.0000
     36 H          -7.1183   -0.4872    0.6199 H       1  UNL1        0.0000
     37 H          -7.0853    2.2799    0.6341 H       1  UNL1        0.0000
     38 H           2.0196    2.4075   -0.3022 H       1  UNL1        0.0000
     39 H           0.0240   -1.9657    0.4754 H       1  UNL1        0.0000
     40 H          -1.2772   -2.7861   -0.9320 H       1  UNL1        0.0000
     41 H           3.9934    1.5143   -1.8144 H       1  UNL1        0.0000
     42 H           6.4255    1.6073   -1.8734 H       1  UNL1        0.0000
     43 H           7.8754    0.5033   -0.1439 H       1  UNL1        0.0000
     44 H           7.7229   -0.9816    2.1356 H       1  UNL1        0.0000
     45 H           3.1829   -1.1901    2.3672 H       1  UNL1        0.0000
@<TRIPOS>BOND
     1     1     2    1
     2     2     3    2
     3     3     4   ar
     4     4     5   ar
     5     5     6   ar
     6     6     7   ar
     7     7     8   ar
     8     8     9   ar
     9     9    10   ar
    10    10    11   ar
    11    11    12   ar
    12    12    13   ar
    13    13    14   ar
    14    14    15   ar
    15    15    16   ar
    16    16    17   ar
    17    17    18   ar
    18    18    19   ar
    19    19    20   ar
    20    20    21   ar
    21    21    22   ar
    22    22    23    2
    23    17    24    1
    24    24    25   ar
    25    25    26   ar
    26    26    27   ar
    27    27    28   ar
    28    28    29   ar
    29    29    30   ar
    30    30    31   ar
    31    31    32   ar
    32    23     1    1
    33    32    24   ar
    34    22     3   ar
    35    32    28   ar
    36     8     4   ar
    37    21     9   ar
    38    14    10   ar
    39    20    15   ar
    40     1    33    1
    41     1    34    1
    42     2    35    1
    43     5    36    1
    44     6    37    1
    45    16    38    1
    46    19    39    1
    47    23    40    1
    48    25    41    1
    49    26    42    1
    50    27    43    1
    51    29    44    1
    52    31    45    1
