@<TRIPOS>MOLECULE
*****
 29 32 0 0 0
SMALL
GASTEIGER

@<TRIPOS>ATOM
      1 C           5.4766   -0.4385   -0.5468 C.ar    1  UNL1       -0.0611
      2 C           5.4885    0.4344    0.5322 C.ar    1  UNL1       -0.0607
      3 C           4.2915    0.8964    1.0842 C.ar    1  UNL1       -0.0474
      4 C           3.0725    0.4622    0.5280 C.ar    1  UNL1        0.0199
      5 S           1.4905    0.8916    1.0336 S.2     1  UNL1       -0.0882
      6 C           0.7217   -0.0688   -0.1657 C.ar    1  UNL1        0.0220
      7 C          -0.7539   -0.1356   -0.2717 C.ar    1  UNL1        0.0089
      8 C          -1.3711   -0.9163   -1.2464 C.ar    1  UNL1        0.0366
      9 N          -2.7108   -1.0371   -1.4170 N.ar    1  UNL1       -0.2528
     10 C          -3.5020   -0.3466   -0.5763 C.ar    1  UNL1        0.0892
     11 C          -4.8802   -0.4291   -0.7001 C.ar    1  UNL1       -0.0328
     12 C          -5.7193    0.2765    0.1585 C.ar    1  UNL1       -0.0415
     13 C          -5.1351    1.0586    1.1344 C.ar    1  UNL1        0.0284
     14 N          -3.8003    1.1724    1.2963 N.ar    1  UNL1       -0.2534
     15 C          -3.0068    0.4791    0.4521 C.ar    1  UNL1        0.0897
     16 C          -1.6253    0.5627    0.5773 C.ar    1  UNL1       -0.0246
     17 C           1.6817   -0.7049   -0.9366 C.ar    1  UNL1       -0.0391
     18 C           3.0352   -0.4132   -0.5545 C.ar    1  UNL1       -0.0102
     19 C           4.2632   -0.8659   -1.0944 C.ar    1  UNL1       -0.0535
     20 H           6.4137   -0.7926   -0.9696 H       1  UNL1        0.0618
     21 H           6.4358    0.7629    0.9533 H       1  UNL1        0.0618
     22 H           4.3026    1.5796    1.9287 H       1  UNL1        0.0629
     23 H          -0.7975   -1.5010   -1.9599 H       1  UNL1        0.0836
     24 H          -5.3049   -1.0549   -1.4803 H       1  UNL1        0.0640
     25 H          -6.7974    0.2140    0.0641 H       1  UNL1        0.0633
     26 H          -5.7386    1.6316    1.8329 H       1  UNL1        0.0830
     27 H          -1.2464    1.2005    1.3716 H       1  UNL1        0.0646
     28 H           1.4494   -1.3681   -1.7600 H       1  UNL1        0.0635
     29 H           4.2667   -1.5497   -1.9395 H       1  UNL1        0.0624
@<TRIPOS>BOND
     1     1     2   ar
     2     2     3   ar
     3     3     4   ar
     4     4     5   ar
     5     5     6   ar
     6     6     7    1
     7     7     8   ar
     8     8     9   ar
     9     9    10   ar
    10    10    11   ar
    11    11    12   ar
    12    12    13   ar
    13    13    14   ar
    14    14    15   ar
    15    15    16   ar
    16     6    17   ar
    17    17    18   ar
    18    18    19   ar
    19    19     1   ar
    20    18     4   ar
    21    16     7   ar
    22    15    10   ar
    23     1    20    1
    24     2    21    1
    25     3    22    1
    26     8    23    1
    27    11    24    1
    28    12    25    1
    29    13    26    1
    30    16    27    1
    31    17    28    1
    32    19    29    1
