@<TRIPOS>MOLECULE
*****
 27 30 0 0 0
SMALL
GASTEIGER

@<TRIPOS>ATOM
      1 C          -5.0224   -1.1296   -0.8474 C.ar    1  UNL1       -0.0611
      2 C          -5.0208    0.1228   -1.4453 C.ar    1  UNL1       -0.0607
      3 C          -3.8512    0.8846   -1.4931 C.ar    1  UNL1       -0.0474
      4 C          -2.6734    0.3616   -0.9248 C.ar    1  UNL1        0.0200
      5 S          -1.1300    1.1110   -0.8657 S.2     1  UNL1       -0.0867
      6 C          -0.4027   -0.2074   -0.0392 C.ar    1  UNL1        0.0402
      7 C           1.0236   -0.1664    0.3268 C.ar    1  UNL1        0.0981
      8 C           1.6567   -1.2035    0.9935 C.ar    1  UNL1        0.0566
      9 N           2.9665   -1.1749    1.3339 N.ar    1  UNL1       -0.2310
     10 C           3.6518   -0.0775    0.9948 C.ar    1  UNL1        0.1977
     11 N           4.9509   -0.0197    1.3184 N.ar    1  UNL1       -0.2316
     12 C           5.6184    1.0972    0.9652 C.ar    1  UNL1        0.0482
     13 C           5.0048    2.1366    0.3026 C.ar    1  UNL1        0.0482
     14 N           3.6994    2.1000   -0.0327 N.ar    1  UNL1       -0.2316
     15 C           3.0133    1.0000    0.3073 C.ar    1  UNL1        0.1983
     16 N           1.7152    0.9435   -0.0166 N.ar    1  UNL1       -0.2226
     17 C          -1.3401   -1.2021    0.1826 C.ar    1  UNL1       -0.0377
     18 C          -2.6502   -0.8932   -0.3191 C.ar    1  UNL1       -0.0102
     19 C          -3.8502   -1.6440   -0.2848 C.ar    1  UNL1       -0.0535
     20 H          -5.9382   -1.7149   -0.8154 H       1  UNL1        0.0618
     21 H          -5.9359    0.5171   -1.8811 H       1  UNL1        0.0618
     22 H          -3.8511    1.8650   -1.9615 H       1  UNL1        0.0629
     23 H           1.1379   -2.1093    1.2860 H       1  UNL1        0.0852
     24 H           6.6686    1.1307    1.2330 H       1  UNL1        0.0846
     25 H           5.5451    3.0333    0.0202 H       1  UNL1        0.0846
     26 H          -1.1211   -2.1347    0.6874 H       1  UNL1        0.0635
     27 H          -3.8650   -2.6264    0.1805 H       1  UNL1        0.0624
@<TRIPOS>BOND
     1     1     2   ar
     2     2     3   ar
     3     3     4   ar
     4     4     5   ar
     5     5     6   ar
     6     6     7    1
     7     7     8   ar
     8     8     9   ar
     9     9    10   ar
    10    10    11   ar
    11    11    12   ar
    12    12    13   ar
    13    13    14   ar
    14    14    15   ar
    15    15    16   ar
    16     6    17   ar
    17    17    18   ar
    18    18    19   ar
    19    19     1   ar
    20    18     4   ar
    21    16     7   ar
    22    15    10   ar
    23     1    20    1
    24     2    21    1
    25     3    22    1
    26     8    23    1
    27    12    24    1
    28    13    25    1
    29    17    26    1
    30    19    27    1
