@<TRIPOS>MOLECULE
*****
 26 29 0 0 0
SMALL
GASTEIGER

@<TRIPOS>ATOM
      1 C           4.9059    0.9969    0.2754 C.ar    1  UNL1       -0.0597
      2 C           5.2551   -0.3390    0.1042 C.ar    1  UNL1       -0.0606
      3 C           4.2731   -1.3224   -0.0522 C.ar    1  UNL1       -0.0459
      4 C           2.9258   -0.9248   -0.0318 C.ar    1  UNL1        0.0396
      5 S           1.5082   -1.8814   -0.1953 S.2     1  UNL1       -0.0656
      6 C           0.5145   -0.4786   -0.0309 C.ar    1  UNL1        0.1292
      7 C          -0.9594   -0.5672   -0.0790 C.ar    1  UNL1        0.1164
      8 C          -1.6732   -1.7420   -0.2545 C.ar    1  UNL1        0.0581
      9 N          -3.0267   -1.7872   -0.2938 N.ar    1  UNL1       -0.2309
     10 C          -3.6749   -0.6254   -0.1534 C.ar    1  UNL1        0.1977
     11 N          -5.0141   -0.6420   -0.1885 N.ar    1  UNL1       -0.2316
     12 C          -5.6428    0.5420   -0.0447 C.ar    1  UNL1        0.0482
     13 C          -4.9513    1.7196    0.1307 C.ar    1  UNL1        0.0482
     14 N          -3.6042    1.7588    0.1690 N.ar    1  UNL1       -0.2316
     15 C          -2.9552    0.5946    0.0283 C.ar    1  UNL1        0.1983
     16 N          -1.6174    0.6101    0.0632 N.ar    1  UNL1       -0.2211
     17 N           1.1911    0.6423    0.1365 N.ar    1  UNL1       -0.2374
     18 C           2.5532    0.4069    0.1383 C.ar    1  UNL1        0.0789
     19 C           3.5608    1.3798    0.2939 C.ar    1  UNL1       -0.0352
     20 H           5.6803    1.7509    0.3958 H       1  UNL1        0.0618
     21 H           6.3054   -0.6235    0.0917 H       1  UNL1        0.0618
     22 H           4.5479   -2.3643   -0.1857 H       1  UNL1        0.0629
     23 H          -1.1972   -2.7093   -0.3729 H       1  UNL1        0.0853
     24 H          -6.7263    0.5144   -0.0750 H       1  UNL1        0.0846
     25 H          -5.4598    2.6703    0.2460 H       1  UNL1        0.0846
     26 H           3.2814    2.4204    0.4270 H       1  UNL1        0.0639
@<TRIPOS>BOND
     1     1     2   ar
     2     2     3   ar
     3     3     4   ar
     4     4     5   ar
     5     5     6   ar
     6     6     7    1
     7     7     8   ar
     8     8     9   ar
     9     9    10   ar
    10    10    11   ar
    11    11    12   ar
    12    12    13   ar
    13    13    14   ar
    14    14    15   ar
    15    15    16   ar
    16     6    17   ar
    17    17    18   ar
    18    18    19   ar
    19    19     1   ar
    20    18     4   ar
    21    16     7   ar
    22    15    10   ar
    23     1    20    1
    24     2    21    1
    25     3    22    1
    26     8    23    1
    27    12    24    1
    28    13    25    1
    29    19    26    1
