@<TRIPOS>MOLECULE
*****
 21 23 0 0 0
SMALL
GASTEIGER

@<TRIPOS>ATOM
      1 C          -3.5595   -0.4871   -0.3953 C.ar    1  UNL1       -0.0611
      2 C          -3.6481    0.4308    0.6420 C.ar    1  UNL1       -0.0607
      3 C          -2.4938    0.9772    1.2075 C.ar    1  UNL1       -0.0474
      4 C          -1.2378    0.5816    0.7080 C.ar    1  UNL1        0.0199
      5 S           0.3089    1.1159    1.2430 S.2     1  UNL1       -0.0881
      6 C           1.1263    0.1428    0.1124 C.ar    1  UNL1        0.0250
      7 C           2.6742    0.0908   -0.0128 C.ar    1  UNL1        0.0473
      8 C           3.6487    0.7852    0.7270 C.ar    1  UNL1        0.0782
      9 N           4.8884    0.4808    0.3310 N.ar    1  UNL1       -0.0862
     10 O           4.7276   -0.4378   -0.6963 O.2     1  UNL1       -0.3623
     11 C           3.4031   -0.6641   -0.8941 C.ar    1  UNL1        0.1324
     12 C           0.2543   -0.5822   -0.6664 C.ar    1  UNL1       -0.0390
     13 C          -1.1228   -0.3405   -0.3350 C.ar    1  UNL1       -0.0102
     14 C          -2.3105   -0.8771   -0.8880 C.ar    1  UNL1       -0.0535
     15 H          -4.4647   -0.9063   -0.8283 H       1  UNL1        0.0618
     16 H          -4.6236    0.7289    1.0196 H       1  UNL1        0.0618
     17 H          -2.5662    1.6955    2.0193 H       1  UNL1        0.0629
     18 H           3.5201    1.4950    1.5317 H       1  UNL1        0.0870
     19 H           3.1662   -1.3683   -1.6767 H       1  UNL1        0.1064
     20 H           0.5643   -1.2643   -1.4477 H       1  UNL1        0.0635
     21 H          -2.2552   -1.5969   -1.7009 H       1  UNL1        0.0624
@<TRIPOS>BOND
     1     1     2   ar
     2     2     3   ar
     3     3     4   ar
     4     4     5   ar
     5     5     6   ar
     6     6     7    1
     7     7     8   ar
     8     8     9   ar
     9     9    10   ar
    10    10    11   ar
    11     6    12   ar
    12    12    13   ar
    13    13    14   ar
    14    14     1   ar
    15    13     4   ar
    16    11     7   ar
    17     1    15    1
    18     2    16    1
    19     3    17    1
    20     8    18    1
    21    11    19    1
    22    12    20    1
    23    14    21    1
