@<TRIPOS>MOLECULE
*****
 20 22 0 0 0
SMALL
GASTEIGER

@<TRIPOS>ATOM
      1 C          -3.3413    0.6256   -0.8972 C.ar    1  UNL1       -0.0597
      2 C          -3.6329    0.0813    0.3497 C.ar    1  UNL1       -0.0606
      3 C          -2.6117   -0.3671    1.1932 C.ar    1  UNL1       -0.0459
      4 C          -1.2843   -0.2533    0.7478 C.ar    1  UNL1        0.0395
      5 S           0.1726   -0.7088    1.5433 S.2     1  UNL1       -0.0670
      6 C           1.0797   -0.1605    0.1977 C.ar    1  UNL1        0.1140
      7 C           2.6263   -0.2348    0.1366 C.ar    1  UNL1        0.0657
      8 C           3.5491   -0.7200    1.0757 C.ar    1  UNL1        0.0797
      9 N           4.8080   -0.6059    0.6398 N.ar    1  UNL1       -0.0861
     10 O           4.7074   -0.0297   -0.6206 O.2     1  UNL1       -0.3623
     11 C           3.3992    0.1879   -0.9113 C.ar    1  UNL1        0.1339
     12 N           0.3833    0.3363   -0.8001 N.ar    1  UNL1       -0.2389
     13 C          -0.9678    0.2894   -0.4993 C.ar    1  UNL1        0.0789
     14 C          -2.0158    0.7341   -1.3305 C.ar    1  UNL1       -0.0352
     15 H          -4.1471    0.9699   -1.5416 H       1  UNL1        0.0618
     16 H          -4.6687    0.0030    0.6741 H       1  UNL1        0.0618
     17 H          -2.8416   -0.7916    2.1659 H       1  UNL1        0.0629
     18 H           3.3761   -1.1497    2.0519 H       1  UNL1        0.0871
     19 H           3.1945    0.6357   -1.8724 H       1  UNL1        0.1064
     20 H          -1.7849    1.1582   -2.3028 H       1  UNL1        0.0639
@<TRIPOS>BOND
     1     1     2   ar
     2     2     3   ar
     3     3     4   ar
     4     4     5   ar
     5     5     6   ar
     6     6     7    1
     7     7     8   ar
     8     8     9   ar
     9     9    10   ar
    10    10    11   ar
    11     6    12   ar
    12    12    13   ar
    13    13    14   ar
    14    14     1   ar
    15    13     4   ar
    16    11     7   ar
    17     1    15    1
    18     2    16    1
    19     3    17    1
    20     8    18    1
    21    11    19    1
    22    14    20    1
