@<TRIPOS>MOLECULE
*****
 21 23 0 0 0
SMALL
GASTEIGER

@<TRIPOS>ATOM
      1 C          -3.5921   -0.4629   -0.7731 C.ar    1  UNL1       -0.0611
      2 C          -3.7909    0.2925    0.3742 C.ar    1  UNL1       -0.0607
      3 C          -2.7023    0.7631    1.1119 C.ar    1  UNL1       -0.0474
      4 C          -1.3989    0.4590    0.6731 C.ar    1  UNL1        0.0200
      5 S           0.0825    0.9271    1.4144 S.2     1  UNL1       -0.0867
      6 C           1.0175    0.1388    0.2307 C.ar    1  UNL1        0.0392
      7 C           2.5899    0.1325    0.2507 C.ar    1  UNL1        0.0847
      8 C           3.3688   -0.4998   -0.6981 C.ar    1  UNL1        0.0036
      9 S           5.0319   -0.2809   -0.3331 S.2     1  UNL1       -0.0832
     10 C           4.5846    0.6308    1.0477 C.ar    1  UNL1        0.0654
     11 N           3.2952    0.7801    1.2508 N.ar    1  UNL1       -0.2469
     12 C           0.2325   -0.4746   -0.7188 C.ar    1  UNL1       -0.0377
     13 C          -1.1734   -0.2993   -0.4782 C.ar    1  UNL1       -0.0102
     14 C          -2.2965   -0.7625   -1.2053 C.ar    1  UNL1       -0.0535
     15 H          -4.4468   -0.8243   -1.3400 H       1  UNL1        0.0618
     16 H          -4.8015    0.5215    0.7042 H       1  UNL1        0.0618
     17 H          -2.8594    1.3543    2.0097 H       1  UNL1        0.0629
     18 H           3.0646   -1.0653   -1.5656 H       1  UNL1        0.0715
     19 H           5.3263    1.0568    1.7107 H       1  UNL1        0.0907
     20 H           0.6227   -1.0316   -1.5602 H       1  UNL1        0.0635
     21 H          -2.1546   -1.3551   -2.1056 H       1  UNL1        0.0624
@<TRIPOS>BOND
     1     1     2   ar
     2     2     3   ar
     3     3     4   ar
     4     4     5   ar
     5     5     6   ar
     6     6     7    1
     7     7     8   ar
     8     8     9   ar
     9     9    10   ar
    10    10    11   ar
    11     6    12   ar
    12    12    13   ar
    13    13    14   ar
    14    14     1   ar
    15    13     4   ar
    16    11     7   ar
    17     1    15    1
    18     2    16    1
    19     3    17    1
    20     8    18    1
    21    10    19    1
    22    12    20    1
    23    14    21    1
