@<TRIPOS>MOLECULE
*****
 20 22 0 0 0
SMALL
GASTEIGER

@<TRIPOS>ATOM
      1 C          -3.4708    1.0057    0.2944 C.ar    1  UNL1       -0.0597
      2 C          -3.7413   -0.3425    0.0828 C.ar    1  UNL1       -0.0606
      3 C          -2.7039   -1.2610   -0.1068 C.ar    1  UNL1       -0.0459
      4 C          -1.3820   -0.7858   -0.0778 C.ar    1  UNL1        0.0396
      5 S           0.0900   -1.6542   -0.2754 S.2     1  UNL1       -0.0657
      6 C           0.9811   -0.2001   -0.0694 C.ar    1  UNL1        0.1281
      7 C           2.5669   -0.1403   -0.1185 C.ar    1  UNL1        0.1030
      8 C           3.3722   -1.2434   -0.3299 C.ar    1  UNL1        0.0051
      9 S           5.0247   -0.7778   -0.3147 S.2     1  UNL1       -0.0832
     10 C           4.5434    0.8424   -0.0304 C.ar    1  UNL1        0.0655
     11 N           3.2503    1.0562    0.0528 N.ar    1  UNL1       -0.2454
     12 N           0.2587    0.8806    0.1352 N.ar    1  UNL1       -0.2375
     13 C          -1.0868    0.5619    0.1328 C.ar    1  UNL1        0.0789
     14 C          -2.1507    1.4672    0.3212 C.ar    1  UNL1       -0.0352
     15 H          -4.2880    1.7084    0.4404 H       1  UNL1        0.0618
     16 H          -4.7730   -0.6882    0.0643 H       1  UNL1        0.0618
     17 H          -2.9170   -2.3127   -0.2718 H       1  UNL1        0.0629
     18 H           3.0919   -2.2742   -0.4889 H       1  UNL1        0.0716
     19 H           5.2678    1.6398    0.0738 H       1  UNL1        0.0907
     20 H          -1.9333    2.5180    0.4859 H       1  UNL1        0.0639
@<TRIPOS>BOND
     1     1     2   ar
     2     2     3   ar
     3     3     4   ar
     4     4     5   ar
     5     5     6   ar
     6     6     7    1
     7     7     8   ar
     8     8     9   ar
     9     9    10   ar
    10    10    11   ar
    11     6    12   ar
    12    12    13   ar
    13    13    14   ar
    14    14     1   ar
    15    13     4   ar
    16    11     7   ar
    17     1    15    1
    18     2    16    1
    19     3    17    1
    20     8    18    1
    21    10    19    1
    22    14    20    1
