@<TRIPOS>MOLECULE
*****
 27 30 0 0 0
SMALL
GASTEIGER

@<TRIPOS>ATOM
      1 C          -5.1874   -0.7478    0.7025 C.ar    1  UNL1       -0.0611
      2 C          -5.3610    0.0968   -0.3852 C.ar    1  UNL1       -0.0607
      3 C          -4.2576    0.6598   -1.0306 C.ar    1  UNL1       -0.0474
      4 C          -2.9651    0.3568   -0.5598 C.ar    1  UNL1        0.0201
      5 S          -1.4691    0.9289   -1.1910 S.2     1  UNL1       -0.0835
      6 C          -0.5536    0.0696   -0.0359 C.ar    1  UNL1        0.0752
      7 C           0.8828    0.1236   -0.0107 C.ar    1  UNL1        0.2351
      8 N           1.6117   -0.5368    0.8787 N.ar    1  UNL1       -0.2085
      9 C           2.9065   -0.2195    0.5590 C.ar    1  UNL1        0.1099
     10 C           4.1219   -0.6094    1.1354 C.ar    1  UNL1       -0.0326
     11 C           5.3085   -0.1098    0.5764 C.ar    1  UNL1       -0.0595
     12 C           5.2821    0.7542   -0.5264 C.ar    1  UNL1       -0.0582
     13 C           4.0739    1.1519   -1.1123 C.ar    1  UNL1       -0.0171
     14 C           2.9242    0.6347   -0.5284 C.ar    1  UNL1        0.1557
     15 O           1.6345    0.8611   -0.9013 O.2     1  UNL1       -0.4348
     16 C          -1.3684   -0.6431    0.8191 C.ar    1  UNL1       -0.0346
     17 C          -2.7655   -0.4900    0.5325 C.ar    1  UNL1       -0.0101
     18 C          -3.9026   -1.0458    1.1664 C.ar    1  UNL1       -0.0535
     19 H          -6.0530   -1.1809    1.1979 H       1  UNL1        0.0618
     20 H          -6.3637    0.3237   -0.7401 H       1  UNL1        0.0618
     21 H          -4.3961    1.3205   -1.8817 H       1  UNL1        0.0629
     22 H           4.1385   -1.2780    1.9887 H       1  UNL1        0.0640
     23 H           6.2645   -0.3997    1.0085 H       1  UNL1        0.0618
     24 H           6.2199    1.1247   -0.9371 H       1  UNL1        0.0619
     25 H           4.0322    1.8183   -1.9644 H       1  UNL1        0.0655
     26 H          -0.9794   -1.2554    1.6248 H       1  UNL1        0.0637
     27 H          -3.7787   -1.7086    2.0193 H       1  UNL1        0.0624
@<TRIPOS>BOND
     1     1     2   ar
     2     2     3   ar
     3     3     4   ar
     4     4     5   ar
     5     5     6   ar
     6     6     7    1
     7     7     8   ar
     8     8     9   ar
     9     9    10   ar
    10    10    11   ar
    11    11    12   ar
    12    12    13   ar
    13    13    14   ar
    14    14    15   ar
    15     6    16   ar
    16    16    17   ar
    17    17    18   ar
    18    18     1   ar
    19    17     4   ar
    20    15     7   ar
    21    14     9   ar
    22     1    19    1
    23     2    20    1
    24     3    21    1
    25    10    22    1
    26    11    23    1
    27    12    24    1
    28    13    25    1
    29    16    26    1
    30    18    27    1
