@<TRIPOS>MOLECULE
*****
 20 22 0 0 0
SMALL
GASTEIGER

@<TRIPOS>ATOM
      1 C          -3.4063    0.7451    0.4336 C.ar    1  UNL1       -0.0611
      2 C          -3.6247   -0.5149   -0.1061 C.ar    1  UNL1       -0.0607
      3 C          -2.5494   -1.3209   -0.4869 C.ar    1  UNL1       -0.0474
      4 C          -1.2389   -0.8345   -0.3145 C.ar    1  UNL1        0.0200
      5 S           0.2306   -1.6439   -0.7083 S.2     1  UNL1       -0.0850
      6 C           1.1796   -0.3416   -0.1717 C.ar    1  UNL1        0.0607
      7 C           2.7435   -0.3127   -0.2050 C.ar    1  UNL1        0.2085
      8 N           3.4651    0.7707    0.2435 N.ar    1  UNL1       -0.1937
      9 C           4.6962    0.3776    0.0371 C.ar    1  UNL1        0.2147
     10 O           4.7983   -0.8620   -0.5032 O.2     1  UNL1       -0.3411
     11 N           3.4923   -1.3259   -0.6661 N.ar    1  UNL1       -0.0559
     12 C           0.4142    0.6988    0.3016 C.ar    1  UNL1       -0.0361
     13 C          -0.9937    0.4307    0.2267 C.ar    1  UNL1       -0.0101
     14 C          -2.1038    1.2244    0.6032 C.ar    1  UNL1       -0.0535
     15 H          -4.2507    1.3643    0.7267 H       1  UNL1        0.0618
     16 H          -4.6409   -0.8803   -0.2348 H       1  UNL1        0.0618
     17 H          -2.7228   -2.3067   -0.9092 H       1  UNL1        0.0629
     18 H           5.6195    0.9001    0.2365 H       1  UNL1        0.1283
     19 H           0.8374    1.6185    0.6879 H       1  UNL1        0.0636
     20 H          -1.9455    2.2130    1.0271 H       1  UNL1        0.0624
@<TRIPOS>BOND
     1     1     2   ar
     2     2     3   ar
     3     3     4   ar
     4     4     5   ar
     5     5     6   ar
     6     6     7    1
     7     7     8   ar
     8     8     9   ar
     9     9    10   ar
    10    10    11   ar
    11     6    12   ar
    12    12    13   ar
    13    13    14   ar
    14    14     1   ar
    15    13     4   ar
    16    11     7   ar
    17     1    15    1
    18     2    16    1
    19     3    17    1
    20     9    18    1
    21    12    19    1
    22    14    20    1
