@<TRIPOS>MOLECULE
*****
 19 21 0 0 0
SMALL
GASTEIGER

@<TRIPOS>ATOM
      1 C          -3.2548    0.4100    1.0158 C.ar    1  UNL1       -0.0597
      2 C          -3.5790   -0.1634   -0.2096 C.ar    1  UNL1       -0.0606
      3 C          -2.5788   -0.5587   -1.1034 C.ar    1  UNL1       -0.0459
      4 C          -1.2386   -0.3614   -0.7310 C.ar    1  UNL1        0.0396
      5 S           0.1971   -0.7379   -1.6016 S.2     1  UNL1       -0.0640
      6 C           1.1453   -0.1218   -0.3089 C.ar    1  UNL1        0.1497
      7 C           2.7296   -0.1125   -0.3524 C.ar    1  UNL1        0.2270
      8 N           3.5019    0.3795    0.6794 N.ar    1  UNL1       -0.1924
      9 C           4.7143    0.1926    0.2272 C.ar    1  UNL1        0.2147
     10 O           4.7635   -0.3759   -1.0028 O.2     1  UNL1       -0.3410
     11 N           3.4396   -0.5815   -1.3937 N.ar    1  UNL1       -0.0543
     12 N           0.4686    0.3429    0.7218 N.ar    1  UNL1       -0.2358
     13 C          -0.8895    0.2118    0.4930 C.ar    1  UNL1        0.0790
     14 C          -1.9169    0.6016    1.3760 C.ar    1  UNL1       -0.0352
     15 H          -4.0439    0.7123    1.7005 H       1  UNL1        0.0618
     16 H          -4.6239   -0.3069   -0.4776 H       1  UNL1        0.0618
     17 H          -2.8335   -1.0061   -2.0595 H       1  UNL1        0.0629
     18 H           5.6582    0.4270    0.6957 H       1  UNL1        0.1283
     19 H          -1.6591    1.0486    2.3312 H       1  UNL1        0.0639
@<TRIPOS>BOND
     1     1     2   ar
     2     2     3   ar
     3     3     4   ar
     4     4     5   ar
     5     5     6   ar
     6     6     7    1
     7     7     8   ar
     8     8     9   ar
     9     9    10   ar
    10    10    11   ar
    11     6    12   ar
    12    12    13   ar
    13    13    14   ar
    14    14     1   ar
    15    13     4   ar
    16    11     7   ar
    17     1    15    1
    18     2    16    1
    19     3    17    1
    20     9    18    1
    21    14    19    1
