@<TRIPOS>MOLECULE
*****
 46 52 0 0 0
SMALL
GASTEIGER

@<TRIPOS>ATOM
      1 SI         -6.1809    2.1942   -1.7503 Si      1  UNL1        0.0000
      2 C          -6.3724    0.9714   -0.3573 C.2     1  UNL1        0.0000
      3 C          -5.1848    0.4336   -0.0219 C.ar    1  UNL1        0.0000
      4 C          -4.9400   -0.5321    0.9924 C.ar    1  UNL1        0.0000
      5 C          -5.7470   -1.2142    1.9223 C.ar    1  UNL1        0.0000
      6 C          -4.8848   -2.0267    2.6329 C.ar    1  UNL1        0.0000
      7 O          -3.5997   -1.8831    2.1943 O.2     1  UNL1        0.0000
      8 C          -3.6501   -0.9678    1.1930 C.ar    1  UNL1        0.0000
      9 C          -2.4503   -0.5573    0.4778 C.ar    1  UNL1        0.0000
     10 C          -1.1887   -1.0844    0.7850 C.ar    1  UNL1        0.0000
     11 C          -0.0999   -0.6222    0.0383 C.ar    1  UNL1        0.0000
     12 N           1.2321   -0.9585    0.1153 N.ar    1  UNL1        0.0000
     13 C           1.9679   -0.2471   -0.8039 C.ar    1  UNL1        0.0000
     14 C           1.0772    0.5416   -1.5064 C.ar    1  UNL1        0.0000
     15 C          -0.2255    0.3220   -0.9783 C.ar    1  UNL1        0.0000
     16 C          -1.5016    0.8437   -1.2786 C.ar    1  UNL1        0.0000
     17 C          -2.6235    0.4090   -0.5528 C.ar    1  UNL1        0.0000
     18 C          -4.0114    0.9218   -0.8172 C.ar    1  UNL1        0.0000
     19 C          -4.3424    1.8360   -1.7552 C.2     1  UNL1        0.0000
     20 C           3.4138   -0.4165   -0.9496 C.ar    1  UNL1        0.0000
     21 C           3.8800   -1.0103   -2.1326 C.ar    1  UNL1        0.0000
     22 C           5.2384   -1.2403   -2.3227 C.ar    1  UNL1        0.0000
     23 C           6.1467   -0.8782   -1.3314 C.ar    1  UNL1        0.0000
     24 C           5.7141   -0.2713   -0.1422 C.ar    1  UNL1        0.0000
     25 C           6.6479    0.0946    0.8420 C.ar    1  UNL1        0.0000
     26 C           6.2422    0.7125    2.0240 C.ar    1  UNL1        0.0000
     27 C           4.8964    0.9791    2.2356 C.ar    1  UNL1        0.0000
     28 C           3.9556    0.6196    1.2681 C.ar    1  UNL1        0.0000
     29 C           4.3330   -0.0225    0.0635 C.ar    1  UNL1        0.0000
     30 H          -6.4827    3.5839   -1.3317 H       1  UNL1        0.0000
     31 H          -6.8454    1.7440   -2.9967 H       1  UNL1        0.0000
     32 H          -7.3328    0.7609    0.0847 H       1  UNL1        0.0000
     33 H          -6.8142   -1.1358    2.0681 H       1  UNL1        0.0000
     34 H          -5.0197   -2.7315    3.4415 H       1  UNL1        0.0000
     35 H          -1.0635   -1.8220    1.5712 H       1  UNL1        0.0000
     36 H           1.6203   -1.6320    0.7610 H       1  UNL1        0.0000
     37 H           1.3387    1.2161   -2.3115 H       1  UNL1        0.0000
     38 H          -1.5909    1.5779   -2.0712 H       1  UNL1        0.0000
     39 H          -3.6971    2.3414   -2.4541 H       1  UNL1        0.0000
     40 H           3.1774   -1.3079   -2.9084 H       1  UNL1        0.0000
     41 H           5.5888   -1.7052   -3.2403 H       1  UNL1        0.0000
     42 H           7.2049   -1.0693   -1.4979 H       1  UNL1        0.0000
     43 H           7.7084   -0.0966    0.6914 H       1  UNL1        0.0000
     44 H           6.9786    0.9921    2.7726 H       1  UNL1        0.0000
     45 H           4.5740    1.4730    3.1485 H       1  UNL1        0.0000
     46 H           2.9127    0.8646    1.4589 H       1  UNL1        0.0000
@<TRIPOS>BOND
     1     1     2    1
     2     2     3    2
     3     3     4   ar
     4     4     5   ar
     5     5     6   ar
     6     6     7   ar
     7     7     8   ar
     8     8     9   ar
     9     9    10   ar
    10    10    11   ar
    11    11    12   ar
    12    12    13   ar
    13    13    14   ar
    14    14    15   ar
    15    15    16   ar
    16    16    17   ar
    17    17    18   ar
    18    18    19    2
    19    13    20    1
    20    20    21   ar
    21    21    22   ar
    22    22    23   ar
    23    23    24   ar
    24    24    25   ar
    25    25    26   ar
    26    26    27   ar
    27    27    28   ar
    28    28    29   ar
    29    19     1    1
    30    29    20   ar
    31    18     3   ar
    32    29    24   ar
    33     8     4   ar
    34    17     9   ar
    35    15    11   ar
    36     1    30    1
    37     1    31    1
    38     2    32    1
    39     5    33    1
    40     6    34    1
    41    10    35    1
    42    12    36    1
    43    14    37    1
    44    16    38    1
    45    19    39    1
    46    21    40    1
    47    22    41    1
    48    23    42    1
    49    25    43    1
    50    26    44    1
    51    27    45    1
    52    28    46    1
