@<TRIPOS>MOLECULE
*****
 42 46 0 0 0
SMALL
GASTEIGER

@<TRIPOS>ATOM
      1 C          -4.6268    1.8883    0.3107 C.3     1  UNL1       -0.0089
      2 C          -6.0543    2.3221    0.4825 C.2     1  UNL1       -0.0797
      3 C          -6.8745    1.3138    0.1579 C.2     1  UNL1       -0.0651
      4 C          -6.0938    0.1707   -0.2405 C.2     1  UNL1       -0.0583
      5 C          -4.7842    0.4647   -0.1684 C.2     1  UNL1       -0.0402
      6 C          -3.6690   -0.3860   -0.4676 C.2     1  UNL1       -0.0396
      7 C          -2.2381    0.0011   -0.1747 C.3     1  UNL1       -0.0019
      8 C          -1.4691   -1.1991   -0.6764 C.2     1  UNL1       -0.0396
      9 C          -2.3373   -2.1012   -1.1630 C.2     1  UNL1       -0.0577
     10 C          -3.6836   -1.6014   -1.0393 C.2     1  UNL1       -0.0577
     11 C          -0.0409   -1.2997   -0.5979 C.2     1  UNL1       -0.0395
     12 C           0.8092   -0.3322    0.1945 C.3     1  UNL1       -0.0016
     13 C           2.2011   -0.8480   -0.0669 C.2     1  UNL1       -0.0353
     14 C           2.1343   -1.9344   -0.8537 C.2     1  UNL1       -0.0574
     15 C           0.7588   -2.2037   -1.1888 C.2     1  UNL1       -0.0577
     16 C           3.3834   -0.2453    0.5223 C.ar    1  UNL1       -0.0133
     17 C           3.4823    0.0995    1.8936 C.ar    1  UNL1       -0.0537
     18 C           4.6406    0.6906    2.4948 C.ar    1  UNL1       -0.0606
     19 C           5.8181    1.0095    1.7882 C.ar    1  UNL1       -0.0535
     20 C           5.7144    0.6890    0.4350 C.ar    1  UNL1       -0.0103
     21 C           6.7343    0.9316   -0.4517 C.ar    1  UNL1       -0.0166
     22 S           6.2969    0.4644   -2.0450 S.2     1  UNL1       -0.1039
     23 C           4.7373   -0.0594   -1.5427 C.ar    1  UNL1       -0.0160
     24 C           4.5538    0.0886   -0.1863 C.ar    1  UNL1       -0.0035
     25 H          -4.0913    1.9377    1.2642 H       1  UNL1        0.0356
     26 H          -4.1203    2.5105   -0.4341 H       1  UNL1        0.0356
     27 H          -6.3614    3.3012    0.8172 H       1  UNL1        0.0575
     28 H          -7.9534    1.3323    0.1836 H       1  UNL1        0.0615
     29 H          -6.5309   -0.7688   -0.5427 H       1  UNL1        0.0620
     30 H          -1.9527    0.9063   -0.7219 H       1  UNL1        0.0362
     31 H          -2.0838    0.1496    0.8997 H       1  UNL1        0.0362
     32 H          -2.1006   -3.0657   -1.5858 H       1  UNL1        0.0621
     33 H          -4.5513   -2.1504   -1.3719 H       1  UNL1        0.0621
     34 H           0.6963    0.6924   -0.1764 H       1  UNL1        0.0362
     35 H           0.5550   -0.3738    1.2589 H       1  UNL1        0.0362
     36 H           2.9608   -2.5451   -1.1856 H       1  UNL1        0.0621
     37 H           0.4535   -3.0195   -1.8263 H       1  UNL1        0.0621
     38 H           2.6373   -0.1118    2.5500 H       1  UNL1        0.0624
     39 H           4.6073    0.9027    3.5642 H       1  UNL1        0.0618
     40 H           6.6819    1.4575    2.2610 H       1  UNL1        0.0624
     41 H           7.7080    1.3629   -0.2650 H       1  UNL1        0.0699
     42 H           4.0528   -0.4414   -2.2864 H       1  UNL1        0.0700
@<TRIPOS>BOND
     1     1     2    1
     2     2     3    2
     3     3     4    1
     4     4     5    2
     5     5     6    1
     6     6     7    1
     7     7     8    1
     8     8     9    2
     9     9    10    1
    10     8    11    1
    11    11    12    1
    12    12    13    1
    13    13    14    2
    14    14    15    1
    15    13    16    1
    16    16    17   ar
    17    17    18   ar
    18    18    19   ar
    19    19    20   ar
    20    20    21   ar
    21    21    22   ar
    22    22    23   ar
    23    23    24   ar
    24     5     1    1
    25    10     6    2
    26    15    11    2
    27    24    16   ar
    28    24    20   ar
    29     1    25    1
    30     1    26    1
    31     2    27    1
    32     3    28    1
    33     4    29    1
    34     7    30    1
    35     7    31    1
    36     9    32    1
    37    10    33    1
    38    12    34    1
    39    12    35    1
    40    14    36    1
    41    15    37    1
    42    17    38    1
    43    18    39    1
    44    19    40    1
    45    21    41    1
    46    23    42    1
