@<TRIPOS>MOLECULE
*****
 40 44 0 0 0
SMALL
GASTEIGER

@<TRIPOS>ATOM
      1 C          -6.2833    0.0585    0.0838 C.3     1  UNL1       -0.0089
      2 C          -7.1692   -1.1540    0.1298 C.2     1  UNL1       -0.0797
      3 C          -6.4164   -2.2617    0.1622 C.2     1  UNL1       -0.0651
      4 C          -5.0237   -1.8946    0.1414 C.2     1  UNL1       -0.0583
      5 C          -4.9043   -0.5566    0.0960 C.2     1  UNL1       -0.0401
      6 C          -3.6911    0.2070    0.0629 C.2     1  UNL1       -0.0395
      7 C          -2.3110   -0.4126    0.0754 C.3     1  UNL1       -0.0001
      8 C          -1.4148    0.8010    0.0292 C.2     1  UNL1       -0.0177
      9 C          -2.1750    1.9095   -0.0040 C.2     1  UNL1       -0.0560
     10 C          -3.5695    1.5440    0.0169 C.2     1  UNL1       -0.0577
     11 C           0.0413    0.6663    0.0251 C.ar    1  UNL1        0.0674
     12 C           0.8967    1.7611   -0.0238 C.ar    1  UNL1       -0.0354
     13 C           2.2781    1.5491   -0.0214 C.ar    1  UNL1       -0.0505
     14 C           2.7977    0.2526    0.0242 C.ar    1  UNL1        0.0024
     15 C           1.8565   -0.7741    0.0670 C.ar    1  UNL1        0.0360
     16 N           0.5113   -0.6009    0.0737 N.ar    1  UNL1       -0.2547
     17 C           4.2361   -0.0198    0.0452 C.ar    1  UNL1        0.0117
     18 C           4.8427   -0.8770    0.9999 C.ar    1  UNL1       -0.0518
     19 C           6.2284   -1.1636    1.0434 C.ar    1  UNL1       -0.0590
     20 C           7.1490   -0.6227    0.1340 C.ar    1  UNL1       -0.0335
     21 C           6.6168    0.2416   -0.8507 C.ar    1  UNL1        0.1005
     22 N           7.3274    0.8561   -1.8086 N.ar    1  UNL1       -0.1908
     23 S           6.2452    1.7364   -2.7054 S.2     1  UNL1        0.1165
     24 N           4.8302    1.3887   -1.9153 N.ar    1  UNL1       -0.1902
     25 C           5.1365    0.5550   -0.9042 C.ar    1  UNL1        0.1076
     26 H          -6.4511    0.6923    0.9605 H       1  UNL1        0.0356
     27 H          -6.4620    0.6322   -0.8313 H       1  UNL1        0.0356
     28 H          -8.2479   -1.1244    0.1351 H       1  UNL1        0.0575
     29 H          -6.7751   -3.2790    0.1981 H       1  UNL1        0.0615
     30 H          -4.2209   -2.6163    0.1602 H       1  UNL1        0.0620
     31 H          -2.1494   -0.9904    0.9924 H       1  UNL1        0.0362
     32 H          -2.1600   -1.0507   -0.8026 H       1  UNL1        0.0362
     33 H          -1.8397    2.9342   -0.0414 H       1  UNL1        0.0621
     34 H          -4.3708    2.2670   -0.0032 H       1  UNL1        0.0621
     35 H           0.5175    2.7758   -0.0644 H       1  UNL1        0.0639
     36 H           2.9417    2.4106   -0.0560 H       1  UNL1        0.0625
     37 H           2.1645   -1.8170    0.0918 H       1  UNL1        0.0836
     38 H           4.2134   -1.3404    1.7631 H       1  UNL1        0.0624
     39 H           6.5969   -1.8334    1.8214 H       1  UNL1        0.0618
     40 H           8.2075   -0.8494    0.1770 H       1  UNL1        0.0640
@<TRIPOS>BOND
     1     1     2    1
     2     2     3    2
     3     3     4    1
     4     4     5    2
     5     5     6    1
     6     6     7    1
     7     7     8    1
     8     8     9    2
     9     9    10    1
    10     8    11    1
    11    11    12   ar
    12    12    13   ar
    13    13    14   ar
    14    14    15   ar
    15    15    16   ar
    16    14    17    1
    17    17    18   ar
    18    18    19   ar
    19    19    20   ar
    20    20    21   ar
    21    21    22   ar
    22    22    23   ar
    23    23    24   ar
    24    24    25   ar
    25     5     1    1
    26    10     6    2
    27    16    11   ar
    28    25    17   ar
    29    25    21   ar
    30     1    26    1
    31     1    27    1
    32     2    28    1
    33     3    29    1
    34     4    30    1
    35     7    31    1
    36     7    32    1
    37     9    33    1
    38    10    34    1
    39    12    35    1
    40    13    36    1
    41    15    37    1
    42    18    38    1
    43    19    39    1
    44    20    40    1
