@<TRIPOS>MOLECULE
*****
 39 43 0 0 0
SMALL
GASTEIGER

@<TRIPOS>ATOM
      1 C           4.0342   -2.5742    0.8851 C.3     1  UNL1       -0.0089
      2 C           5.4472   -3.0456    1.0768 C.2     1  UNL1       -0.0797
      3 C           6.2981   -2.0563    0.7732 C.2     1  UNL1       -0.0651
      4 C           5.5535   -0.8909    0.3703 C.2     1  UNL1       -0.0583
      5 C           4.2357   -1.1506    0.4216 C.2     1  UNL1       -0.0402
      6 C           3.1469   -0.2727    0.1045 C.2     1  UNL1       -0.0395
      7 C           1.7001   -0.6869    0.2064 C.3     1  UNL1       -0.0011
      8 C           0.9504    0.5651   -0.2265 C.2     1  UNL1       -0.0287
      9 C           1.8667    1.5071   -0.5161 C.2     1  UNL1       -0.0569
     10 C           3.2016    0.9997   -0.3156 C.2     1  UNL1       -0.0577
     11 C          -0.4606    0.7697   -0.3288 C.ar    1  UNL1        0.0237
     12 S          -1.5216   -0.5528    0.0841 S.2     1  UNL1       -0.0872
     13 C          -2.9858    0.3128   -0.2390 C.ar    1  UNL1        0.0305
     14 C          -4.2836   -0.3124   -0.0633 C.ar    1  UNL1        0.0262
     15 C          -4.5546   -1.6059    0.3588 C.ar    1  UNL1       -0.0464
     16 C          -5.9489   -1.8999    0.4222 C.ar    1  UNL1       -0.0541
     17 C          -6.7149   -0.8231    0.0466 C.ar    1  UNL1       -0.0237
     18 S          -5.7562    0.5227   -0.3760 S.2     1  UNL1       -0.0961
     19 C          -2.6612    1.5822   -0.6522 C.ar    1  UNL1       -0.0206
     20 C          -3.4001    2.8107   -1.0778 C.3     1  UNL1       -0.0075
     21 C          -2.2428    3.7598   -1.3645 C.2     1  UNL1       -0.0791
     22 C          -1.0530    3.1629   -1.1374 C.2     1  UNL1       -0.0568
     23 C          -1.2574    1.8248   -0.6984 C.ar    1  UNL1       -0.0067
     24 H           3.5253   -3.1777    0.1267 H       1  UNL1        0.0356
     25 H           3.4813   -2.6174    1.8289 H       1  UNL1        0.0356
     26 H           5.7234   -4.0345    1.4095 H       1  UNL1        0.0575
     27 H           7.3756   -2.1029    0.8165 H       1  UNL1        0.0615
     28 H           6.0203    0.0370    0.0771 H       1  UNL1        0.0620
     29 H           1.4835   -1.5232   -0.4675 H       1  UNL1        0.0362
     30 H           1.4420   -0.9591    1.2359 H       1  UNL1        0.0362
     31 H           1.6984    2.5150   -0.8540 H       1  UNL1        0.0621
     32 H           4.0904    1.5872   -0.4886 H       1  UNL1        0.0621
     33 H          -3.7885   -2.3272    0.6166 H       1  UNL1        0.0629
     34 H          -6.3634   -2.8526    0.7279 H       1  UNL1        0.0623
     35 H          -7.7935   -0.7610   -0.0003 H       1  UNL1        0.0693
     36 H          -3.9872    2.6418   -1.9848 H       1  UNL1        0.0356
     37 H          -4.0289    3.2087   -0.2766 H       1  UNL1        0.0356
     38 H          -2.3755    4.7759   -1.7050 H       1  UNL1        0.0575
     39 H          -0.0970    3.6437   -1.2736 H       1  UNL1        0.0621
@<TRIPOS>BOND
     1     1     2    1
     2     2     3    2
     3     3     4    1
     4     4     5    2
     5     5     6    1
     6     6     7    1
     7     7     8    1
     8     8     9    2
     9     9    10    1
    10     8    11    1
    11    11    12   ar
    12    12    13   ar
    13    13    14    1
    14    14    15   ar
    15    15    16   ar
    16    16    17   ar
    17    17    18   ar
    18    13    19   ar
    19    19    20    1
    20    20    21    1
    21    21    22    2
    22    22    23    1
    23     5     1    1
    24    10     6    2
    25    23    11   ar
    26    18    14   ar
    27    23    19   ar
    28     1    24    1
    29     1    25    1
    30     2    26    1
    31     3    27    1
    32     4    28    1
    33     7    29    1
    34     7    30    1
    35     9    31    1
    36    10    32    1
    37    15    33    1
    38    16    34    1
    39    17    35    1
    40    20    36    1
    41    20    37    1
    42    21    38    1
    43    22    39    1
