@<TRIPOS>MOLECULE
*****
 42 47 0 0 0
SMALL
GASTEIGER

@<TRIPOS>ATOM
      1 C           5.2545    0.1211   -1.7891 C.3     1  UNL1        0.0000
      2 C           6.7223   -0.0598   -2.0509 C.2     1  UNL1        0.0000
      3 C           7.3405   -0.4260   -0.9202 C.2     1  UNL1        0.0000
      4 C           6.3758   -0.5162    0.1456 C.2     1  UNL1        0.0000
      5 C           5.1529   -0.2050   -0.3177 C.2     1  UNL1        0.0000
      6 C           3.9144   -0.1725    0.4045 C.2     1  UNL1        0.0000
      7 C           2.5886    0.1268   -0.2501 C.3     1  UNL1        0.0000
      8 C           1.6080    0.0483    0.9086 C.2     1  UNL1        0.0000
      9 C           2.3086   -0.2488    2.0192 C.2     1  UNL1        0.0000
     10 C           3.7113   -0.3822    1.7139 C.2     1  UNL1        0.0000
     11 C           0.2026    0.2414    0.8854 C.ar    1  UNL1        0.0000
     12 S          -0.6740    0.5875   -0.5812 S.2     1  UNL1        0.0000
     13 C          -2.2177    0.6711    0.2097 C.ar    1  UNL1        0.0000
     14 C          -3.4355    0.9201   -0.4996 C.ar    1  UNL1        0.0000
     15 S          -3.6699    2.3626   -1.4273 S.2     1  UNL1        0.0000
     16 C          -5.2732    1.9195   -1.8948 C.ar    1  UNL1        0.0000
     17 C          -5.6127    0.7068   -1.3598 C.ar    1  UNL1        0.0000
     18 C          -6.8151   -0.0596   -1.4782 C.2     1  UNL1        0.0000
     19 C          -6.8024   -1.2392   -0.8197 C.2     1  UNL1        0.0000
     20 SI         -5.1356   -1.5149    0.0839 Si      1  UNL1        0.0000
     21 C          -4.5648    0.1575   -0.5727 C.ar    1  UNL1        0.0000
     22 C          -2.0103    0.4420    1.5257 C.ar    1  UNL1        0.0000
     23 C          -2.7239    0.3697    2.7353 C.ar    1  UNL1        0.0000
     24 C          -1.7592    0.0899    3.7084 C.ar    1  UNL1        0.0000
     25 O          -0.4738   -0.0206    3.2156 O.2     1  UNL1        0.0000
     26 C          -0.7035    0.2103    1.8901 C.ar    1  UNL1        0.0000
     27 H           4.9492    1.1518   -1.9961 H       1  UNL1        0.0000
     28 H           4.6655   -0.5719   -2.3985 H       1  UNL1        0.0000
     29 H           7.1963    0.0863   -3.0095 H       1  UNL1        0.0000
     30 H           8.3945   -0.6271   -0.8030 H       1  UNL1        0.0000
     31 H           6.6338   -0.7971    1.1553 H       1  UNL1        0.0000
     32 H           2.5851    1.1282   -0.6947 H       1  UNL1        0.0000
     33 H           2.3493   -0.6214   -1.0139 H       1  UNL1        0.0000
     34 H           1.9295   -0.3806    3.0217 H       1  UNL1        0.0000
     35 H           4.4582   -0.6154    2.4575 H       1  UNL1        0.0000
     36 H          -5.8545    2.5721   -2.5307 H       1  UNL1        0.0000
     37 H          -7.6638    0.2880   -2.0562 H       1  UNL1        0.0000
     38 H          -7.5878   -1.9760   -0.7687 H       1  UNL1        0.0000
     39 H          -4.4133   -2.6775   -0.4886 H       1  UNL1        0.0000
     40 H          -5.3375   -1.5425    1.5548 H       1  UNL1        0.0000
     41 H          -3.7818    0.5056    2.9089 H       1  UNL1        0.0000
     42 H          -1.8308   -0.0523    4.7789 H       1  UNL1        0.0000
@<TRIPOS>BOND
     1     1     2    1
     2     2     3    2
     3     3     4    1
     4     4     5    2
     5     5     6    1
     6     6     7    1
     7     7     8    1
     8     8     9    2
     9     9    10    1
    10     8    11    1
    11    11    12   ar
    12    12    13   ar
    13    13    14    1
    14    14    15   ar
    15    15    16   ar
    16    16    17   ar
    17    17    18    1
    18    18    19    2
    19    19    20    1
    20    20    21    1
    21    13    22   ar
    22    22    23   ar
    23    23    24   ar
    24    24    25   ar
    25    25    26   ar
    26     5     1    1
    27    10     6    2
    28    26    11   ar
    29    21    14   ar
    30    26    22   ar
    31    21    17   ar
    32     1    27    1
    33     1    28    1
    34     2    29    1
    35     3    30    1
    36     4    31    1
    37     7    32    1
    38     7    33    1
    39     9    34    1
    40    10    35    1
    41    16    36    1
    42    18    37    1
    43    19    38    1
    44    20    39    1
    45    20    40    1
    46    23    41    1
    47    24    42    1
