@<TRIPOS>MOLECULE
*****
 48 53 0 0 0
SMALL
GASTEIGER

@<TRIPOS>ATOM
      1 C           6.2191    0.1843   -0.5243 C.3     1  UNL1       -0.0086
      2 C           7.5110    0.6988    0.0443 C.2     1  UNL1       -0.0797
      3 C           7.2685    1.3501    1.1872 C.2     1  UNL1       -0.0651
      4 C           5.8547    1.3216    1.4567 C.2     1  UNL1       -0.0580
      5 C           5.2021    0.6528    0.4849 C.2     1  UNL1       -0.0359
      6 C           3.7586    0.4198    0.4177 C.ar    1  UNL1       -0.0124
      7 C           2.8366    0.8960    1.3952 C.ar    1  UNL1       -0.0531
      8 C           1.4138    0.6908    1.3678 C.ar    1  UNL1       -0.0528
      9 C           0.7301   -0.0193    0.3553 C.ar    1  UNL1       -0.0081
     10 C          -0.6980   -0.2426    0.3327 C.ar    1  UNL1       -0.0081
     11 C          -1.3142   -1.5037    0.4959 C.ar    1  UNL1       -0.0528
     12 C          -2.7358   -1.7188    0.4896 C.ar    1  UNL1       -0.0531
     13 C          -3.7236   -0.7050    0.3200 C.ar    1  UNL1       -0.0124
     14 C          -5.1633   -0.9694    0.3196 C.2     1  UNL1       -0.0359
     15 C          -6.2490    0.0596    0.1330 C.3     1  UNL1       -0.0086
     16 C          -7.5032   -0.7627    0.2212 C.2     1  UNL1       -0.0797
     17 C          -7.1833   -2.0454    0.4253 C.2     1  UNL1       -0.0651
     18 C          -5.7506   -2.1715    0.4858 C.2     1  UNL1       -0.0580
     19 C          -3.0967    0.5467    0.1569 C.ar    1  UNL1        0.0074
     20 C          -3.6611    1.7867   -0.0420 C.ar    1  UNL1        0.0100
     21 N          -2.6430    2.7102   -0.1584 N.ar    1  UNL1       -0.3659
     22 C          -1.4249    2.0906   -0.0373 C.ar    1  UNL1        0.0100
     23 C          -1.6672    0.7531    0.1668 C.ar    1  UNL1        0.0077
     24 C           1.6347   -0.4876   -0.6042 C.ar    1  UNL1        0.0077
     25 C           1.3157   -1.1988   -1.7363 C.ar    1  UNL1        0.0100
     26 N           2.4886   -1.4494   -2.4025 N.ar    1  UNL1       -0.3659
     27 C           3.5528   -0.9021   -1.7162 C.ar    1  UNL1        0.0100
     28 C           3.0647   -0.2848   -0.5865 C.ar    1  UNL1        0.0074
     29 H           6.2556   -0.9075   -0.5899 H       1  UNL1        0.0356
     30 H           6.0486    0.6268   -1.5107 H       1  UNL1        0.0356
     31 H           8.4800    0.5574   -0.4090 H       1  UNL1        0.0575
     32 H           7.9998    1.8275    1.8212 H       1  UNL1        0.0615
     33 H           5.4309    1.7880    2.3324 H       1  UNL1        0.0620
     34 H           3.2132    1.4640    2.2455 H       1  UNL1        0.0624
     35 H           0.8303    1.1089    2.1897 H       1  UNL1        0.0624
     36 H          -0.6751   -2.3759    0.6429 H       1  UNL1        0.0624
     37 H          -3.0556   -2.7511    0.6298 H       1  UNL1        0.0624
     38 H          -6.1915    0.5396   -0.8489 H       1  UNL1        0.0356
     39 H          -6.2434    0.8079    0.9316 H       1  UNL1        0.0356
     40 H          -8.5033   -0.3673    0.1325 H       1  UNL1        0.0575
     41 H          -7.8721   -2.8694    0.5309 H       1  UNL1        0.0615
     42 H          -5.2674   -3.1229    0.6449 H       1  UNL1        0.0620
     43 H          -4.6788    2.1334   -0.1217 H       1  UNL1        0.0813
     44 H          -2.7756    3.7004   -0.3178 H       1  UNL1        0.1648
     45 H          -0.5069    2.6578   -0.1141 H       1  UNL1        0.0813
     46 H           0.3704   -1.5437   -2.1337 H       1  UNL1        0.0813
     47 H           2.5619   -1.9559   -3.2752 H       1  UNL1        0.1648
     48 H           4.5422   -1.0184   -2.1282 H       1  UNL1        0.0813
@<TRIPOS>BOND
     1     1     2    1
     2     2     3    2
     3     3     4    1
     4     4     5    2
     5     5     6    1
     6     6     7   ar
     7     7     8   ar
     8     8     9   ar
     9     9    10    1
    10    10    11   ar
    11    11    12   ar
    12    12    13   ar
    13    13    14    1
    14    14    15    1
    15    15    16    1
    16    16    17    2
    17    17    18    1
    18    13    19   ar
    19    19    20   ar
    20    20    21   ar
    21    21    22   ar
    22    22    23   ar
    23     9    24   ar
    24    24    25   ar
    25    25    26   ar
    26    26    27   ar
    27    27    28   ar
    28     5     1    1
    29    28     6   ar
    30    23    10   ar
    31    28    24   ar
    32    18    14    2
    33    23    19   ar
    34     1    29    1
    35     1    30    1
    36     2    31    1
    37     3    32    1
    38     4    33    1
    39     7    34    1
    40     8    35    1
    41    11    36    1
    42    12    37    1
    43    15    38    1
    44    15    39    1
    45    16    40    1
    46    17    41    1
    47    18    42    1
    48    20    43    1
    49    21    44    1
    50    22    45    1
    51    25    46    1
    52    26    47    1
    53    27    48    1
