@<TRIPOS>MOLECULE
*****
 34 37 0 0 0
SMALL
GASTEIGER

@<TRIPOS>ATOM
      1 C           3.9884    0.8218    0.3150 C.3     1  UNL1       -0.0086
      2 C           5.3616    0.3920   -0.1166 C.2     1  UNL1       -0.0797
      3 C           5.2671   -0.6958   -0.8893 C.2     1  UNL1       -0.0651
      4 C           3.8812   -1.0608   -1.0240 C.2     1  UNL1       -0.0580
      5 C           3.0982   -0.2059   -0.3357 C.2     1  UNL1       -0.0359
      6 C           1.6385   -0.2638   -0.2364 C.ar    1  UNL1       -0.0124
      7 C           0.8516   -1.2944   -0.8236 C.ar    1  UNL1       -0.0531
      8 C          -0.5806   -1.3877   -0.7526 C.ar    1  UNL1       -0.0514
      9 C          -1.4201   -0.4561   -0.0934 C.ar    1  UNL1        0.0095
     10 C          -2.8747   -0.5653   -0.0620 C.ar    1  UNL1        0.0716
     11 C          -3.7206    0.5046   -0.3528 C.ar    1  UNL1       -0.0357
     12 C          -5.1003    0.3111   -0.3270 C.ar    1  UNL1       -0.0583
     13 C          -5.6042   -0.9456   -0.0217 C.ar    1  UNL1       -0.0436
     14 C          -4.7025   -1.9621    0.2376 C.ar    1  UNL1        0.0283
     15 N          -3.3611   -1.8029    0.2157 N.ar    1  UNL1       -0.2550
     16 C          -0.6423    0.5465    0.5047 C.ar    1  UNL1        0.0091
     17 C          -1.0998    1.5772    1.2928 C.ar    1  UNL1        0.0101
     18 N          -0.0087    2.3138    1.6818 N.ar    1  UNL1       -0.3659
     19 C           1.1451    1.7607    1.1706 C.ar    1  UNL1        0.0100
     20 C           0.8013    0.6443    0.4420 C.ar    1  UNL1        0.0074
     21 H           3.9169    0.7906    1.4067 H       1  UNL1        0.0356
     22 H           3.7875    1.8307   -0.0584 H       1  UNL1        0.0356
     23 H           6.2766    0.8928    0.1600 H       1  UNL1        0.0575
     24 H           6.0849   -1.2310   -1.3470 H       1  UNL1        0.0615
     25 H           3.5694   -1.9131   -1.6076 H       1  UNL1        0.0620
     26 H           1.3475   -2.0939   -1.3734 H       1  UNL1        0.0624
     27 H          -1.0526   -2.2393   -1.2472 H       1  UNL1        0.0624
     28 H          -3.3153    1.4767   -0.6145 H       1  UNL1        0.0639
     29 H          -5.7726    1.1343   -0.5505 H       1  UNL1        0.0619
     30 H          -6.6717   -1.1312    0.0069 H       1  UNL1        0.0633
     31 H          -5.0432   -2.9656    0.4758 H       1  UNL1        0.0830
     32 H          -2.0889    1.8544    1.6304 H       1  UNL1        0.0813
     33 H          -0.0432    3.1331    2.2744 H       1  UNL1        0.1648
     34 H           2.0864    2.2302    1.4064 H       1  UNL1        0.0813
@<TRIPOS>BOND
     1     1     2    1
     2     2     3    2
     3     3     4    1
     4     4     5    2
     5     5     6    1
     6     6     7   ar
     7     7     8   ar
     8     8     9   ar
     9     9    10    1
    10    10    11   ar
    11    11    12   ar
    12    12    13   ar
    13    13    14   ar
    14    14    15   ar
    15     9    16   ar
    16    16    17   ar
    17    17    18   ar
    18    18    19   ar
    19    19    20   ar
    20     5     1    1
    21    20     6   ar
    22    15    10   ar
    23    20    16   ar
    24     1    21    1
    25     1    22    1
    26     2    23    1
    27     3    24    1
    28     4    25    1
    29     7    26    1
    30     8    27    1
    31    11    28    1
    32    12    29    1
    33    13    30    1
    34    14    31    1
    35    17    32    1
    36    18    33    1
    37    19    34    1
