@<TRIPOS>MOLECULE
*****
 43 48 0 0 0
SMALL
GASTEIGER

@<TRIPOS>ATOM
      1 C           5.3371    1.0579   -0.9872 C.3     1  UNL1       -0.0086
      2 C           6.7553    0.9475   -0.4974 C.2     1  UNL1       -0.0797
      3 C           6.7812    0.3073    0.6801 C.2     1  UNL1       -0.0651
      4 C           5.4374   -0.0374    1.0671 C.2     1  UNL1       -0.0580
      5 C           4.5792    0.3785    0.1208 C.2     1  UNL1       -0.0359
      6 C           3.1360    0.2710    0.1728 C.ar    1  UNL1       -0.0124
      7 C           2.3465    0.7306    1.2582 C.ar    1  UNL1       -0.0531
      8 C           0.9125    0.6486    1.3095 C.ar    1  UNL1       -0.0523
      9 C           0.1179    0.0866    0.2829 C.ar    1  UNL1       -0.0001
     10 C          -1.3178   -0.0258    0.3342 C.ar    1  UNL1        0.0444
     11 S          -2.3658    1.3416    0.3764 S.2     1  UNL1       -0.0850
     12 C          -3.8295    0.3788    0.4253 C.ar    1  UNL1        0.0357
     13 C          -5.1395    0.9847    0.4707 C.ar    1  UNL1        0.0265
     14 C          -5.4806    2.2922    0.1625 C.ar    1  UNL1       -0.0464
     15 C          -6.8722    2.5608    0.3230 C.ar    1  UNL1       -0.0541
     16 C          -7.5607    1.4513    0.7524 C.ar    1  UNL1       -0.0237
     17 S          -6.5336    0.1035    0.9573 S.2     1  UNL1       -0.0961
     18 C          -3.4368   -0.9205    0.4203 C.ar    1  UNL1        0.0155
     19 C          -3.9472   -2.2504    0.4406 C.ar    1  UNL1       -0.0355
     20 C          -2.8446   -3.1303    0.4150 C.ar    1  UNL1        0.0028
     21 N          -1.6400   -2.4366    0.3765 N.ar    1  UNL1       -0.3597
     22 C          -2.0755   -1.1411    0.3740 C.ar    1  UNL1        0.0621
     23 C           0.9041   -0.3723   -0.7815 C.ar    1  UNL1        0.0082
     24 C           0.4786   -0.9645   -1.9470 C.ar    1  UNL1        0.0100
     25 N           1.6000   -1.2664   -2.6864 N.ar    1  UNL1       -0.3659
     26 C           2.7359   -0.8751   -2.0107 C.ar    1  UNL1        0.0100
     27 C           2.3369   -0.2846   -0.8353 C.ar    1  UNL1        0.0074
     28 H           5.0437    2.1075   -1.0901 H       1  UNL1        0.0356
     29 H           5.2345    0.5502   -1.9488 H       1  UNL1        0.0356
     30 H           7.6156    1.3280   -1.0266 H       1  UNL1        0.0575
     31 H           7.6585    0.0829    1.2675 H       1  UNL1        0.0615
     32 H           5.1870   -0.5405    1.9889 H       1  UNL1        0.0620
     33 H           2.8507    1.1915    2.1090 H       1  UNL1        0.0624
     34 H           0.4176    1.0401    2.1993 H       1  UNL1        0.0624
     35 H          -4.7669    3.0358   -0.1714 H       1  UNL1        0.0629
     36 H          -7.3397    3.5189    0.1325 H       1  UNL1        0.0623
     37 H          -8.6189    1.3653    0.9569 H       1  UNL1        0.0693
     38 H          -4.9834   -2.5598    0.4713 H       1  UNL1        0.0639
     39 H          -2.8272   -4.2126    0.4223 H       1  UNL1        0.0807
     40 H          -0.6808   -2.7635    0.3489 H       1  UNL1        0.1654
     41 H          -0.5072   -1.2009   -2.3258 H       1  UNL1        0.0813
     42 H           1.5920   -1.7166   -3.5928 H       1  UNL1        0.1648
     43 H           3.7098   -1.0619   -2.4402 H       1  UNL1        0.0813
@<TRIPOS>BOND
     1     1     2    1
     2     2     3    2
     3     3     4    1
     4     4     5    2
     5     5     6    1
     6     6     7   ar
     7     7     8   ar
     8     8     9   ar
     9     9    10    1
    10    10    11   ar
    11    11    12   ar
    12    12    13    1
    13    13    14   ar
    14    14    15   ar
    15    15    16   ar
    16    16    17   ar
    17    12    18   ar
    18    18    19   ar
    19    19    20   ar
    20    20    21   ar
    21    21    22   ar
    22     9    23   ar
    23    23    24   ar
    24    24    25   ar
    25    25    26   ar
    26    26    27   ar
    27     5     1    1
    28    27     6   ar
    29    22    10   ar
    30    27    23   ar
    31    17    13   ar
    32    22    18   ar
    33     1    28    1
    34     1    29    1
    35     2    30    1
    36     3    31    1
    37     4    32    1
    38     7    33    1
    39     8    34    1
    40    14    35    1
    41    15    36    1
    42    16    37    1
    43    19    38    1
    44    20    39    1
    45    21    40    1
    46    24    41    1
    47    25    42    1
    48    26    43    1
