@<TRIPOS>MOLECULE
*****
 47 53 0 0 0
SMALL
GASTEIGER

@<TRIPOS>ATOM
      1 C          -5.4180    0.9560   -1.4550 C.3     1  UNL1       -0.0086
      2 C          -6.8380    0.4603   -1.4771 C.2     1  UNL1       -0.0797
      3 C          -6.9189   -0.7216   -0.8478 C.2     1  UNL1       -0.0651
      4 C          -5.6142   -1.1031   -0.3705 C.2     1  UNL1       -0.0580
      5 C          -4.7299   -0.1504   -0.7057 C.2     1  UNL1       -0.0359
      6 C          -3.2977   -0.1426   -0.4171 C.ar    1  UNL1       -0.0138
      7 C          -2.4788   -0.8822   -1.2775 C.ar    1  UNL1       -0.0531
      8 C          -1.1041   -0.9194   -1.0801 C.ar    1  UNL1       -0.0523
      9 C          -0.5180   -0.2173   -0.0179 C.ar    1  UNL1       -0.0029
     10 C           0.9314   -0.3214    0.1404 C.ar    1  UNL1        0.0313
     11 S           2.0059    0.5761   -0.8989 S.2     1  UNL1       -0.0837
     12 C           3.4312   -0.0469   -0.1429 C.ar    1  UNL1        0.0663
     13 C           4.7673    0.3040   -0.5489 C.ar    1  UNL1        0.0385
     14 C           5.2755    1.6066   -0.5559 C.ar    1  UNL1        0.0381
     15 N           6.5371    2.0111   -0.9217 N.ar    1  UNL1       -0.2604
     16 C           7.4655    1.1014   -1.3405 C.ar    1  UNL1        0.0557
     17 C           7.0906   -0.2563   -1.3952 C.ar    1  UNL1        0.1185
     18 N           7.8622   -1.2831   -1.7874 N.ar    1  UNL1       -0.1892
     19 S           6.9222   -2.6459   -1.6657 S.2     1  UNL1        0.1165
     20 N           5.4970   -1.9932   -1.1274 N.ar    1  UNL1       -0.1900
     21 C           5.6973   -0.6690   -0.9906 C.ar    1  UNL1        0.1111
     22 C           3.0517   -0.8725    0.8521 C.ar    1  UNL1        0.1502
     23 O           3.8548   -1.5467    1.7214 O.2     1  UNL1       -0.4617
     24 C           2.8921   -2.1959    2.4732 C.ar    1  UNL1        0.0932
     25 C           1.5750   -1.9166    2.0868 C.ar    1  UNL1       -0.0150
     26 C           1.6953   -1.0265    1.0064 C.ar    1  UNL1        0.0355
     27 C          -1.3274    0.5376    0.8776 C.ar    1  UNL1       -0.0091
     28 C          -0.7910    1.2698    1.9668 C.ar    1  UNL1       -0.0534
     29 C          -1.5987    1.9959    2.8422 C.ar    1  UNL1       -0.0611
     30 C          -2.9702    2.0120    2.6550 C.ar    1  UNL1       -0.0611
     31 C          -3.5288    1.3083    1.5885 C.ar    1  UNL1       -0.0534
     32 C          -2.7359    0.5684    0.6776 C.ar    1  UNL1       -0.0099
     33 H          -5.3496    1.9139   -0.9309 H       1  UNL1        0.0356
     34 H          -5.0268    1.0601   -2.4718 H       1  UNL1        0.0356
     35 H          -7.6612    0.9868   -1.9357 H       1  UNL1        0.0575
     36 H          -7.8117   -1.3126   -0.7095 H       1  UNL1        0.0615
     37 H          -5.4067   -2.0137    0.1709 H       1  UNL1        0.0620
     38 H          -2.9106   -1.4327   -2.1112 H       1  UNL1        0.0624
     39 H          -0.4882   -1.5047   -1.7603 H       1  UNL1        0.0624
     40 H           4.6411    2.4342   -0.2359 H       1  UNL1        0.0836
     41 H           8.4454    1.4681   -1.6156 H       1  UNL1        0.0852
     42 H           3.2993   -2.8252    3.2540 H       1  UNL1        0.1030
     43 H           0.6779   -2.3113    2.5422 H       1  UNL1        0.0655
     44 H           0.2816    1.2864    2.1490 H       1  UNL1        0.0624
     45 H          -1.1519    2.5441    3.6673 H       1  UNL1        0.0618
     46 H          -3.6100    2.5699    3.3334 H       1  UNL1        0.0618
     47 H          -4.6111    1.3399    1.4770 H       1  UNL1        0.0624
@<TRIPOS>BOND
     1     1     2    1
     2     2     3    2
     3     3     4    1
     4     4     5    2
     5     5     6    1
     6     6     7   ar
     7     7     8   ar
     8     8     9   ar
     9     9    10    1
    10    10    11   ar
    11    11    12   ar
    12    12    13    1
    13    13    14   ar
    14    14    15   ar
    15    15    16   ar
    16    16    17   ar
    17    17    18   ar
    18    18    19   ar
    19    19    20   ar
    20    20    21   ar
    21    12    22   ar
    22    22    23   ar
    23    23    24   ar
    24    24    25   ar
    25    25    26   ar
    26     9    27   ar
    27    27    28   ar
    28    28    29   ar
    29    29    30   ar
    30    30    31   ar
    31    31    32   ar
    32     5     1    1
    33    32     6   ar
    34    26    10   ar
    35    32    27   ar
    36    21    13   ar
    37    26    22   ar
    38    21    17   ar
    39     1    33    1
    40     1    34    1
    41     2    35    1
    42     3    36    1
    43     4    37    1
    44     7    38    1
    45     8    39    1
    46    14    40    1
    47    16    41    1
    48    24    42    1
    49    25    43    1
    50    28    44    1
    51    29    45    1
    52    30    46    1
    53    31    47    1
