@<TRIPOS>MOLECULE
*****
 41 45 0 0 0
SMALL
GASTEIGER

@<TRIPOS>ATOM
      1 C          -5.7273   -0.2594    1.5666 C.3     1  UNL1       -0.0086
      2 C          -7.1562   -0.0092    1.1807 C.2     1  UNL1       -0.0797
      3 C          -7.2070    0.4726   -0.0673 C.2     1  UNL1       -0.0651
      4 C          -5.8705    0.5791   -0.5936 C.2     1  UNL1       -0.0580
      5 C          -4.9767    0.1650    0.3244 C.2     1  UNL1       -0.0365
      6 C          -3.5110    0.1064    0.2065 C.ar    1  UNL1       -0.0215
      7 C          -2.8477    0.5624   -0.9427 C.ar    1  UNL1       -0.0537
      8 C          -1.4516    0.5063   -1.0483 C.ar    1  UNL1       -0.0529
      9 C          -0.6798   -0.0110   -0.0053 C.ar    1  UNL1       -0.0093
     10 C          -1.3290   -0.4646    1.1467 C.ar    1  UNL1       -0.0529
     11 C          -2.7250   -0.4052    1.2498 C.ar    1  UNL1       -0.0537
     12 C           0.7662   -0.0844   -0.1153 C.ar    1  UNL1        0.0438
     13 S           1.7755    1.3099   -0.2693 S.2     1  UNL1       -0.0855
     14 C           3.2571    0.3840   -0.3068 C.ar    1  UNL1        0.0306
     15 C           4.5608    1.0361   -0.4071 C.ar    1  UNL1        0.0074
     16 C           5.6547    0.5726    0.3315 C.ar    1  UNL1       -0.0506
     17 C           6.8944    1.2006    0.2180 C.ar    1  UNL1       -0.0430
     18 C           7.0078    2.2811   -0.6396 C.ar    1  UNL1        0.0276
     19 N           5.9843    2.7618   -1.3747 N.ar    1  UNL1       -0.2626
     20 C           4.7904    2.1296   -1.2409 C.ar    1  UNL1        0.0358
     21 C           2.9049   -0.9203   -0.2044 C.ar    1  UNL1        0.0151
     22 C           3.4673   -2.2246   -0.1774 C.ar    1  UNL1       -0.0355
     23 C           2.3987   -3.1391   -0.0634 C.ar    1  UNL1        0.0028
     24 N           1.1687   -2.4874   -0.0210 N.ar    1  UNL1       -0.3597
     25 C           1.5551   -1.1795   -0.1051 C.ar    1  UNL1        0.0620
     26 H          -5.4531    0.3506    2.4334 H       1  UNL1        0.0356
     27 H          -5.5742   -1.3201    1.7906 H       1  UNL1        0.0356
     28 H          -8.0057   -0.1930    1.8206 H       1  UNL1        0.0575
     29 H          -8.0979    0.7459   -0.6122 H       1  UNL1        0.0615
     30 H          -5.6698    0.9448   -1.5886 H       1  UNL1        0.0620
     31 H          -3.4016    0.9755   -1.7815 H       1  UNL1        0.0624
     32 H          -0.9763    0.8675   -1.9580 H       1  UNL1        0.0624
     33 H          -0.7536   -0.8558    1.9834 H       1  UNL1        0.0624
     34 H          -3.1801   -0.7652    2.1690 H       1  UNL1        0.0624
     35 H           5.5484   -0.2705    1.0094 H       1  UNL1        0.0625
     36 H           7.7493    0.8552    0.7883 H       1  UNL1        0.0633
     37 H           7.9521    2.8039   -0.7615 H       1  UNL1        0.0829
     38 H           4.0007    2.5449   -1.8617 H       1  UNL1        0.0836
     39 H           4.5132   -2.4940   -0.2431 H       1  UNL1        0.0639
     40 H           2.4197   -4.2206   -0.0184 H       1  UNL1        0.0807
     41 H           0.2250   -2.8516    0.0408 H       1  UNL1        0.1654
@<TRIPOS>BOND
     1     1     2    1
     2     2     3    2
     3     3     4    1
     4     4     5    2
     5     5     6    1
     6     6     7   ar
     7     7     8   ar
     8     8     9   ar
     9     9    10   ar
    10    10    11   ar
    11     9    12    1
    12    12    13   ar
    13    13    14   ar
    14    14    15    1
    15    15    16   ar
    16    16    17   ar
    17    17    18   ar
    18    18    19   ar
    19    19    20   ar
    20    14    21   ar
    21    21    22   ar
    22    22    23   ar
    23    23    24   ar
    24    24    25   ar
    25     5     1    1
    26    11     6   ar
    27    25    12   ar
    28    20    15   ar
    29    25    21   ar
    30     1    26    1
    31     1    27    1
    32     2    28    1
    33     3    29    1
    34     4    30    1
    35     7    31    1
    36     8    32    1
    37    10    33    1
    38    11    34    1
    39    16    35    1
    40    17    36    1
    41    18    37    1
    42    20    38    1
    43    22    39    1
    44    23    40    1
    45    24    41    1
