@<TRIPOS>MOLECULE
*****
 42 47 0 0 0
SMALL
GASTEIGER

@<TRIPOS>ATOM
      1 C           5.5114   -0.5092    2.5719 C.3     1  UNL1       -0.0086
      2 C           6.9394   -0.0724    2.7266 C.2     1  UNL1       -0.0797
      3 C           7.2356    0.8362    1.7891 C.2     1  UNL1       -0.0651
      4 C           6.0765    1.0700    0.9667 C.2     1  UNL1       -0.0580
      5 C           5.0491    0.3078    1.3867 C.2     1  UNL1       -0.0365
      6 C           3.6867    0.2318    0.8360 C.ar    1  UNL1       -0.0215
      7 C           3.2923    1.0085   -0.2615 C.ar    1  UNL1       -0.0537
      8 C           1.9917    0.9305   -0.7803 C.ar    1  UNL1       -0.0529
      9 C           1.0386    0.0728   -0.2194 C.ar    1  UNL1       -0.0077
     10 C           1.4292   -0.7057    0.8767 C.ar    1  UNL1       -0.0529
     11 C           2.7305   -0.6269    1.3946 C.ar    1  UNL1       -0.0537
     12 C          -0.3149   -0.0020   -0.7596 C.ar    1  UNL1        0.0627
     13 S          -1.7366   -0.1565    0.2148 S.2     1  UNL1       -0.0833
     14 C          -2.8316   -0.1512   -1.1458 C.ar    1  UNL1        0.0380
     15 C          -4.2552   -0.2501   -0.9810 C.ar    1  UNL1        0.0358
     16 S          -5.3791    0.4309   -2.1336 S.2     1  UNL1       -0.0934
     17 C          -6.7847   -0.0720   -1.2538 C.ar    1  UNL1        0.0002
     18 C          -6.3669   -0.7204   -0.1498 C.ar    1  UNL1        0.0542
     19 N          -7.1562   -1.2800    0.8121 N.ar    1  UNL1       -0.3602
     20 C          -6.1983   -1.7998    1.6785 C.ar    1  UNL1        0.0028
     21 C          -4.8890   -1.5410    1.2197 C.ar    1  UNL1       -0.0355
     22 C          -5.0003   -0.8162   -0.0001 C.ar    1  UNL1        0.0149
     23 C          -2.0695   -0.0310   -2.2614 C.ar    1  UNL1        0.0361
     24 C          -2.1875    0.0289   -3.6648 C.ar    1  UNL1       -0.0150
     25 C          -0.8771    0.1449   -4.1408 C.ar    1  UNL1        0.0932
     26 O           0.0841    0.1616   -3.1504 O.2     1  UNL1       -0.4617
     27 C          -0.7119    0.0501   -2.0481 C.ar    1  UNL1        0.1501
     28 H           4.9402   -0.2719    3.4753 H       1  UNL1        0.0356
     29 H           5.4616   -1.5836    2.3679 H       1  UNL1        0.0356
     30 H           7.6152   -0.4420    3.4826 H       1  UNL1        0.0575
     31 H           8.1863    1.3289    1.6526 H       1  UNL1        0.0615
     32 H           6.0834    1.7670    0.1432 H       1  UNL1        0.0620
     33 H           3.9859    1.6940   -0.7407 H       1  UNL1        0.0624
     34 H           1.7356    1.5595   -1.6309 H       1  UNL1        0.0624
     35 H           0.7307   -1.3975    1.3426 H       1  UNL1        0.0624
     36 H           2.9736   -1.2584    2.2454 H       1  UNL1        0.0624
     37 H          -7.7896    0.1341   -1.5938 H       1  UNL1        0.0714
     38 H          -8.1676   -1.2988    0.8579 H       1  UNL1        0.1653
     39 H          -6.5244   -2.3236    2.5681 H       1  UNL1        0.0807
     40 H          -3.9833   -1.8517    1.7234 H       1  UNL1        0.0639
     41 H          -3.0789   -0.0100   -4.2740 H       1  UNL1        0.0655
     42 H          -0.4751    0.2204   -5.1427 H       1  UNL1        0.1030
@<TRIPOS>BOND
     1     1     2    1
     2     2     3    2
     3     3     4    1
     4     4     5    2
     5     5     6    1
     6     6     7   ar
     7     7     8   ar
     8     8     9   ar
     9     9    10   ar
    10    10    11   ar
    11     9    12    1
    12    12    13   ar
    13    13    14   ar
    14    14    15    1
    15    15    16   ar
    16    16    17   ar
    17    17    18   ar
    18    18    19   ar
    19    19    20   ar
    20    20    21   ar
    21    21    22   ar
    22    14    23   ar
    23    23    24   ar
    24    24    25   ar
    25    25    26   ar
    26    26    27   ar
    27     5     1    1
    28    11     6   ar
    29    27    12   ar
    30    22    15   ar
    31    27    23   ar
    32    22    18   ar
    33     1    28    1
    34     1    29    1
    35     2    30    1
    36     3    31    1
    37     4    32    1
    38     7    33    1
    39     8    34    1
    40    10    35    1
    41    11    36    1
    42    17    37    1
    43    19    38    1
    44    20    39    1
    45    21    40    1
    46    24    41    1
    47    25    42    1
