@<TRIPOS>MOLECULE
*****
 45 52 0 0 0
SMALL
GASTEIGER

@<TRIPOS>ATOM
      1 SI         -1.5215   -1.0775   -1.0900 Si      1  UNL1        0.0000
      2 C          -2.5404    0.1786   -0.0756 C.2     1  UNL1        0.0000
      3 C          -1.7732    1.0594    0.6006 C.2     1  UNL1        0.0000
      4 C          -0.3501    0.8142    0.4011 C.ar    1  UNL1        0.0000
      5 C           0.0230   -0.2529   -0.4494 C.ar    1  UNL1        0.0000
      6 C           1.3715   -0.6119   -0.7075 C.ar    1  UNL1        0.0000
      7 S           1.9843   -1.9595   -1.6028 S.2     1  UNL1        0.0000
      8 C           3.6353   -1.5197   -1.3515 C.ar    1  UNL1        0.0000
      9 C           4.7781   -2.2477   -1.7950 C.ar    1  UNL1        0.0000
     10 C           6.0825   -1.7634   -1.6187 C.ar    1  UNL1        0.0000
     11 C           6.1078   -0.4936   -1.0595 C.ar    1  UNL1        0.0000
     12 C           7.2954    0.1905   -0.9241 C.ar    1  UNL1        0.0000
     13 S           7.0466    1.7923   -0.3423 S.2     1  UNL1        0.0000
     14 C           5.3380    1.5755   -0.2754 C.ar    1  UNL1        0.0000
     15 C           5.0159    0.2893   -0.6007 C.ar    1  UNL1        0.0000
     16 C           3.6992   -0.3075   -0.6698 C.ar    1  UNL1        0.0000
     17 C           2.4505    0.1211   -0.1911 C.ar    1  UNL1        0.0000
     18 C           2.1019    1.1469    0.7720 C.ar    1  UNL1        0.0000
     19 C           2.8358    1.8732    1.6609 C.ar    1  UNL1        0.0000
     20 O           1.9852    2.6842    2.3684 O.2     1  UNL1        0.0000
     21 C           0.7107    2.4084    1.9493 C.ar    1  UNL1        0.0000
     22 C           0.7358    1.4290    0.9870 C.ar    1  UNL1        0.0000
     23 C          -3.9857    0.1826   -0.1198 C.ar    1  UNL1        0.0000
     24 C          -4.7733    1.1666   -0.7681 C.ar    1  UNL1        0.0000
     25 C          -6.2148    1.1576   -0.7988 C.ar    1  UNL1        0.0000
     26 C          -7.0206    0.1735   -0.1791 C.ar    1  UNL1        0.0000
     27 C          -6.2248   -0.7667    0.4611 C.ar    1  UNL1        0.0000
     28 C          -6.6486   -1.8508    1.1809 C.ar    1  UNL1        0.0000
     29 O          -5.5625   -2.5234    1.6718 O.2     1  UNL1        0.0000
     30 C          -4.4404   -1.8561    1.2581 C.ar    1  UNL1        0.0000
     31 C          -4.7979   -0.7724    0.4969 C.ar    1  UNL1        0.0000
     32 H          -1.6918   -2.4611   -0.5759 H       1  UNL1        0.0000
     33 H          -1.7145   -0.8936   -2.5513 H       1  UNL1        0.0000
     34 H          -2.1463    1.8620    1.2216 H       1  UNL1        0.0000
     35 H           4.6359   -3.2042   -2.2963 H       1  UNL1        0.0000
     36 H           6.9519   -2.3114   -1.9602 H       1  UNL1        0.0000
     37 H           8.2980   -0.1369   -1.1642 H       1  UNL1        0.0000
     38 H           4.7154    2.4231   -0.0391 H       1  UNL1        0.0000
     39 H           3.8713    1.9393    1.9577 H       1  UNL1        0.0000
     40 H          -0.0690    2.9605    2.4550 H       1  UNL1        0.0000
     41 H          -4.2658    1.9836   -1.2834 H       1  UNL1        0.0000
     42 H          -6.7133    1.9669   -1.3347 H       1  UNL1        0.0000
     43 H          -8.1007    0.1803   -0.2059 H       1  UNL1        0.0000
     44 H          -7.6110   -2.2686    1.4399 H       1  UNL1        0.0000
     45 H          -3.5040   -2.2798    1.5923 H       1  UNL1        0.0000
@<TRIPOS>BOND
     1     1     2    1
     2     2     3    2
     3     3     4    1
     4     4     5   ar
     5     5     6   ar
     6     6     7   ar
     7     7     8   ar
     8     8     9   ar
     9     9    10   ar
    10    10    11   ar
    11    11    12   ar
    12    12    13   ar
    13    13    14   ar
    14    14    15   ar
    15    15    16   ar
    16    16    17   ar
    17    17    18   ar
    18    18    19   ar
    19    19    20   ar
    20    20    21   ar
    21    21    22   ar
    22     2    23    1
    23    23    24   ar
    24    24    25   ar
    25    25    26   ar
    26    26    27   ar
    27    27    28   ar
    28    28    29   ar
    29    29    30   ar
    30    30    31   ar
    31     5     1    1
    32    17     6   ar
    33    22    18   ar
    34    31    23   ar
    35    22     4   ar
    36    31    27   ar
    37    16     8   ar
    38    15    11   ar
    39     1    32    1
    40     1    33    1
    41     3    34    1
    42     9    35    1
    43    10    36    1
    44    12    37    1
    45    14    38    1
    46    19    39    1
    47    21    40    1
    48    24    41    1
    49    25    42    1
    50    26    43    1
    51    28    44    1
    52    30    45    1
