@<TRIPOS>MOLECULE
*****
 40 46 0 0 0
SMALL
GASTEIGER

@<TRIPOS>ATOM
      1 SI         -5.0385   -2.2412    2.1309 Si      1  UNL1        0.0000
      2 C          -5.5146   -0.7749    1.0839 C.2     1  UNL1        0.0000
      3 C          -4.4256   -0.1912    0.5495 C.ar    1  UNL1        0.0000
      4 C          -4.3972    0.9481   -0.3006 C.ar    1  UNL1        0.0000
      5 C          -5.3773    1.7998   -0.8440 C.ar    1  UNL1        0.0000
      6 C          -4.6836    2.7270   -1.5975 C.ar    1  UNL1        0.0000
      7 O          -3.3390    2.4942   -1.5481 O.2     1  UNL1        0.0000
      8 C          -3.1805    1.4054   -0.7528 C.ar    1  UNL1        0.0000
      9 C          -1.8618    0.8585   -0.4673 C.ar    1  UNL1        0.0000
     10 C          -0.6947    1.4258   -0.9967 C.ar    1  UNL1        0.0000
     11 C           0.5218    0.8230   -0.6602 C.ar    1  UNL1        0.0000
     12 N           1.8058    1.1552   -1.0255 N.ar    1  UNL1        0.0000
     13 C           2.7180    0.2904   -0.4661 C.ar    1  UNL1        0.0000
     14 C           1.9911   -0.6198    0.2778 C.ar    1  UNL1        0.0000
     15 C           0.6101   -0.2955    0.1637 C.ar    1  UNL1        0.0000
     16 C          -0.5722   -0.8574    0.6904 C.ar    1  UNL1        0.0000
     17 C          -1.8171   -0.2849    0.3791 C.ar    1  UNL1        0.0000
     18 C          -3.1162   -0.8293    0.9037 C.ar    1  UNL1        0.0000
     19 C          -3.2444   -1.9027    1.7140 C.2     1  UNL1        0.0000
     20 C           4.1282    0.4043   -0.6806 C.ar    1  UNL1        0.0000
     21 S           4.8721    1.6337   -1.6635 S.2     1  UNL1        0.0000
     22 C           6.4858    1.0506   -1.3782 C.ar    1  UNL1        0.0000
     23 C           6.3926   -0.0250   -0.5696 C.ar    1  UNL1        0.0000
     24 C           7.2152   -0.9718    0.0589 C.ar    1  UNL1        0.0000
     25 C           6.3339   -1.8046    0.7594 C.ar    1  UNL1        0.0000
     26 O           5.0012   -1.4614    0.6268 O.2     1  UNL1        0.0000
     27 C           5.1181   -0.3759   -0.1914 C.ar    1  UNL1        0.0000
     28 H          -5.3325   -2.0313    3.5687 H       1  UNL1        0.0000
     29 H          -5.5171   -3.5240    1.5623 H       1  UNL1        0.0000
     30 H          -6.5431   -0.4779    0.9577 H       1  UNL1        0.0000
     31 H          -6.4486    1.7576   -0.7140 H       1  UNL1        0.0000
     32 H          -4.9829    3.5734   -2.1997 H       1  UNL1        0.0000
     33 H          -0.7356    2.2977   -1.6416 H       1  UNL1        0.0000
     34 H           2.0486    1.9311   -1.6250 H       1  UNL1        0.0000
     35 H           2.4043   -1.4404    0.8502 H       1  UNL1        0.0000
     36 H          -0.4942   -1.7283    1.3311 H       1  UNL1        0.0000
     37 H          -2.4697   -2.5356    2.1134 H       1  UNL1        0.0000
     38 H           7.3477    1.5331   -1.8165 H       1  UNL1        0.0000
     39 H           8.2910   -1.0656    0.0297 H       1  UNL1        0.0000
     40 H           6.5010   -2.6699    1.3877 H       1  UNL1        0.0000
@<TRIPOS>BOND
     1     1     2    1
     2     2     3    2
     3     3     4   ar
     4     4     5   ar
     5     5     6   ar
     6     6     7   ar
     7     7     8   ar
     8     8     9   ar
     9     9    10   ar
    10    10    11   ar
    11    11    12   ar
    12    12    13   ar
    13    13    14   ar
    14    14    15   ar
    15    15    16   ar
    16    16    17   ar
    17    17    18   ar
    18    18    19    2
    19    13    20    1
    20    20    21   ar
    21    21    22   ar
    22    22    23   ar
    23    23    24   ar
    24    24    25   ar
    25    25    26   ar
    26    26    27   ar
    27    19     1    1
    28    27    20   ar
    29    18     3   ar
    30    27    23   ar
    31     8     4   ar
    32    17     9   ar
    33    15    11   ar
    34     1    28    1
    35     1    29    1
    36     2    30    1
    37     5    31    1
    38     6    32    1
    39    10    33    1
    40    12    34    1
    41    14    35    1
    42    16    36    1
    43    19    37    1
    44    22    38    1
    45    24    39    1
    46    25    40    1
