@<TRIPOS>MOLECULE
*****
 38 42 0 0 0
SMALL
GASTEIGER

@<TRIPOS>ATOM
      1 C           5.9295    0.7800    0.1209 C.3     1  UNL1       -0.0086
      2 C           7.2530    0.1109   -0.1096 C.2     1  UNL1       -0.0797
      3 C           7.0564   -1.1551   -0.4982 C.2     1  UNL1       -0.0651
      4 C           5.6425   -1.4239   -0.5564 C.2     1  UNL1       -0.0580
      5 C           4.9495   -0.3250   -0.2037 C.2     1  UNL1       -0.0351
      6 C           3.4933   -0.1552   -0.1253 C.ar    1  UNL1       -0.0034
      7 C           2.6008   -1.1884   -0.4236 C.ar    1  UNL1       -0.0508
      8 C           1.2196   -0.9851   -0.3362 C.ar    1  UNL1       -0.0337
      9 C           0.7473    0.2613    0.0524 C.ar    1  UNL1        0.0871
     10 N           1.5786    1.2835    0.3486 N.ar    1  UNL1       -0.2529
     11 C           2.9124    1.0534    0.2539 C.ar    1  UNL1        0.0357
     12 C          -0.6735    0.5899    0.1787 C.ar    1  UNL1        0.0654
     13 C          -1.2779    1.7796    0.5503 C.ar    1  UNL1       -0.0343
     14 C          -2.6825    1.5990    0.5221 C.ar    1  UNL1       -0.0353
     15 C          -2.9352    0.2992    0.1334 C.ar    1  UNL1        0.0542
     16 N          -1.7041   -0.2898   -0.0681 N.ar    1  UNL1       -0.3525
     17 C          -4.1715   -0.4116   -0.0584 C.ar    1  UNL1        0.0437
     18 S          -4.1895   -2.0740   -0.5617 S.2     1  UNL1       -0.0935
     19 C          -5.9035   -2.1754   -0.5599 C.ar    1  UNL1       -0.0094
     20 C          -6.4480   -0.9818   -0.1879 C.ar    1  UNL1        0.0270
     21 S          -8.1737   -0.4957   -0.0079 S.2     1  UNL1       -0.0961
     22 C          -7.5242    1.0672    0.4533 C.ar    1  UNL1       -0.0231
     23 C          -6.1289    1.1809    0.4613 C.ar    1  UNL1       -0.0458
     24 C          -5.4674   -0.0235    0.0838 C.ar    1  UNL1        0.0054
     25 H           5.8420    1.1058    1.1625 H       1  UNL1        0.0356
     26 H           5.8119    1.6362   -0.5511 H       1  UNL1        0.0356
     27 H           8.2124    0.5882    0.0212 H       1  UNL1        0.0575
     28 H           7.8227   -1.8776   -0.7356 H       1  UNL1        0.0615
     29 H           5.2486   -2.3854   -0.8474 H       1  UNL1        0.0620
     30 H           2.9578   -2.1679   -0.7285 H       1  UNL1        0.0625
     31 H           0.5521   -1.8039   -0.5734 H       1  UNL1        0.0640
     32 H           3.5145    1.9215    0.5073 H       1  UNL1        0.0836
     33 H          -0.7471    2.6863    0.8147 H       1  UNL1        0.0639
     34 H          -3.4129    2.3564    0.7651 H       1  UNL1        0.0639
     35 H          -1.5951   -1.2495   -0.3604 H       1  UNL1        0.1660
     36 H          -6.4348   -3.0795   -0.8237 H       1  UNL1        0.0705
     37 H          -8.2357    1.8430    0.7019 H       1  UNL1        0.0694
     38 H          -5.6394    2.1062    0.7323 H       1  UNL1        0.0629
@<TRIPOS>BOND
     1     1     2    1
     2     2     3    2
     3     3     4    1
     4     4     5    2
     5     5     6    1
     6     6     7   ar
     7     7     8   ar
     8     8     9   ar
     9     9    10   ar
    10    10    11   ar
    11     9    12    1
    12    12    13   ar
    13    13    14   ar
    14    14    15   ar
    15    15    16   ar
    16    15    17    1
    17    17    18   ar
    18    18    19   ar
    19    19    20   ar
    20    20    21   ar
    21    21    22   ar
    22    22    23   ar
    23    23    24   ar
    24     5     1    1
    25    11     6   ar
    26    16    12   ar
    27    24    17   ar
    28    24    20   ar
    29     1    25    1
    30     1    26    1
    31     2    27    1
    32     3    28    1
    33     4    29    1
    34     7    30    1
    35     8    31    1
    36    11    32    1
    37    13    33    1
    38    14    34    1
    39    16    35    1
    40    19    36    1
    41    22    37    1
    42    23    38    1
