@<TRIPOS>MOLECULE
*****
 46 51 0 0 0
SMALL
GASTEIGER

@<TRIPOS>ATOM
      1 C           6.5010    0.6585    0.4795 C.3     1  UNL1       -0.0086
      2 C           7.8303    0.2692   -0.0988 C.2     1  UNL1       -0.0797
      3 C           7.6439   -0.4389   -1.2197 C.2     1  UNL1       -0.0651
      4 C           6.2320   -0.5743   -1.4712 C.2     1  UNL1       -0.0580
      5 C           5.5303    0.0526   -0.5082 C.2     1  UNL1       -0.0351
      6 C           4.0723    0.1619   -0.3749 C.ar    1  UNL1       -0.0034
      7 C           3.4806    0.7698    0.7359 C.ar    1  UNL1       -0.0509
      8 C           2.0904    0.8605    0.8372 C.ar    1  UNL1       -0.0351
      9 C           1.3006    0.3330   -0.1799 C.ar    1  UNL1        0.0716
     10 N           1.8379   -0.2458   -1.2774 N.ar    1  UNL1       -0.2544
     11 C           3.1922   -0.3200   -1.3435 C.ar    1  UNL1        0.0357
     12 C          -0.1686    0.4113   -0.1482 C.ar    1  UNL1        0.0081
     13 C          -0.7931    1.2639   -1.0742 C.ar    1  UNL1       -0.0514
     14 C          -2.1725    1.4283   -1.0813 C.ar    1  UNL1       -0.0523
     15 C          -2.9722    0.7427   -0.1593 C.ar    1  UNL1       -0.0030
     16 C          -4.4186    0.9476   -0.2377 C.ar    1  UNL1        0.0281
     17 S          -5.1472    2.3520    0.4518 S.2     1  UNL1       -0.0949
     18 C          -6.7388    1.8796   -0.0211 C.ar    1  UNL1       -0.0094
     19 C          -6.7036    0.6874   -0.6867 C.ar    1  UNL1        0.0269
     20 S          -8.0173   -0.3046   -1.4153 S.2     1  UNL1       -0.0961
     21 C          -6.7233   -1.4094   -1.8678 C.ar    1  UNL1       -0.0231
     22 C          -5.4282   -1.0363   -1.4888 C.ar    1  UNL1       -0.0459
     23 C          -5.4029    0.1988   -0.7914 C.ar    1  UNL1        0.0040
     24 C          -2.3809   -0.1436    0.7834 C.ar    1  UNL1       -0.0090
     25 C          -3.1467   -0.8666    1.7326 C.ar    1  UNL1       -0.0534
     26 C          -2.5634   -1.7509    2.6388 C.ar    1  UNL1       -0.0611
     27 C          -1.1935   -1.9435    2.6200 C.ar    1  UNL1       -0.0611
     28 C          -0.4105   -1.2410    1.7038 C.ar    1  UNL1       -0.0534
     29 C          -0.9673   -0.3206    0.7804 C.ar    1  UNL1       -0.0081
     30 H           6.3817    0.2319    1.4807 H       1  UNL1        0.0356
     31 H           6.4061    1.7483    0.5225 H       1  UNL1        0.0356
     32 H           8.7859    0.5270    0.3320 H       1  UNL1        0.0575
     33 H           8.4158   -0.8523   -1.8512 H       1  UNL1        0.0615
     34 H           5.8473   -1.1141   -2.3232 H       1  UNL1        0.0620
     35 H           4.0817    1.1825    1.5411 H       1  UNL1        0.0625
     36 H           1.6347    1.3389    1.6987 H       1  UNL1        0.0639
     37 H           3.5508   -0.7999   -2.2496 H       1  UNL1        0.0836
     38 H          -0.1897    1.8066   -1.8007 H       1  UNL1        0.0624
     39 H          -2.6226    2.0936   -1.8151 H       1  UNL1        0.0624
     40 H          -7.6104    2.4793    0.2018 H       1  UNL1        0.0705
     41 H          -7.0066   -2.3030   -2.4072 H       1  UNL1        0.0694
     42 H          -4.5567   -1.6403   -1.7131 H       1  UNL1        0.0629
     43 H          -4.2279   -0.7486    1.7772 H       1  UNL1        0.0624
     44 H          -3.1842   -2.2910    3.3486 H       1  UNL1        0.0618
     45 H          -0.7285   -2.6411    3.3112 H       1  UNL1        0.0618
     46 H           0.6598   -1.4393    1.7107 H       1  UNL1        0.0624
@<TRIPOS>BOND
     1     1     2    1
     2     2     3    2
     3     3     4    1
     4     4     5    2
     5     5     6    1
     6     6     7   ar
     7     7     8   ar
     8     8     9   ar
     9     9    10   ar
    10    10    11   ar
    11     9    12    1
    12    12    13   ar
    13    13    14   ar
    14    14    15   ar
    15    15    16    1
    16    16    17   ar
    17    17    18   ar
    18    18    19   ar
    19    19    20   ar
    20    20    21   ar
    21    21    22   ar
    22    22    23   ar
    23    15    24   ar
    24    24    25   ar
    25    25    26   ar
    26    26    27   ar
    27    27    28   ar
    28    28    29   ar
    29     5     1    1
    30    11     6   ar
    31    29    12   ar
    32    23    16   ar
    33    29    24   ar
    34    23    19   ar
    35     1    30    1
    36     1    31    1
    37     2    32    1
    38     3    33    1
    39     4    34    1
    40     7    35    1
    41     8    36    1
    42    11    37    1
    43    13    38    1
    44    14    39    1
    45    18    40    1
    46    21    41    1
    47    22    42    1
    48    25    43    1
    49    26    44    1
    50    27    45    1
    51    28    46    1
