@<TRIPOS>MOLECULE
*****
 40 44 0 0 0
SMALL
GASTEIGER

@<TRIPOS>ATOM
      1 C           6.4830    0.2095    0.3258 C.3     1  UNL1       -0.0086
      2 C           7.6613    0.6873   -0.4716 C.2     1  UNL1       -0.0797
      3 C           7.2358    1.2633   -1.6028 C.2     1  UNL1       -0.0651
      4 C           5.7968    1.2188   -1.6508 C.2     1  UNL1       -0.0580
      5 C           5.3176    0.6137   -0.5477 C.2     1  UNL1       -0.0351
      6 C           3.9172    0.3576   -0.1909 C.ar    1  UNL1       -0.0034
      7 C           3.5658   -0.2864    0.9956 C.ar    1  UNL1       -0.0509
      8 C           2.2214   -0.5188    1.3129 C.ar    1  UNL1       -0.0351
      9 C           1.2191   -0.1046    0.4381 C.ar    1  UNL1        0.0724
     10 N           1.5407    0.5226   -0.7194 N.ar    1  UNL1       -0.2543
     11 C           2.8529    0.7352   -1.0021 C.ar    1  UNL1        0.0357
     12 C          -0.2278   -0.3009    0.6779 C.ar    1  UNL1        0.0185
     13 C          -0.7608   -0.9255    1.8115 C.ar    1  UNL1       -0.0491
     14 C          -2.1459   -1.0769    1.9723 C.ar    1  UNL1       -0.0345
     15 C          -3.0132   -0.6010    0.9926 C.ar    1  UNL1        0.0797
     16 N          -2.5289    0.0045   -0.1094 N.ar    1  UNL1       -0.2537
     17 C          -1.1815    0.1384   -0.2403 C.ar    1  UNL1        0.0374
     18 C          -4.4877   -0.7080    1.0614 C.ar    1  UNL1        0.0649
     19 S          -5.2436   -1.4693    2.4322 S.2     1  UNL1       -0.0908
     20 C          -6.8256   -1.2317    1.8398 C.ar    1  UNL1        0.0038
     21 C          -6.8096   -0.5919    0.6315 C.ar    1  UNL1        0.0968
     22 N          -7.9531   -0.2892   -0.0445 N.ar    1  UNL1       -0.2514
     23 C          -7.6668    0.3430   -1.2138 C.ar    1  UNL1        0.0464
     24 C          -6.3808    0.6454   -1.6690 C.ar    1  UNL1        0.0464
     25 N          -5.2316    0.3519   -1.0101 N.ar    1  UNL1       -0.2507
     26 C          -5.4697   -0.2860    0.1746 C.ar    1  UNL1        0.1054
     27 H           6.4523    0.7095    1.2992 H       1  UNL1        0.0356
     28 H           6.5292   -0.8757    0.4630 H       1  UNL1        0.0356
     29 H           8.6918    0.5779   -0.1694 H       1  UNL1        0.0575
     30 H           7.8561    1.6989   -2.3717 H       1  UNL1        0.0615
     31 H           5.2349    1.6272   -2.4769 H       1  UNL1        0.0620
     32 H           4.3229   -0.6219    1.6992 H       1  UNL1        0.0625
     33 H           1.9950   -1.0225    2.2452 H       1  UNL1        0.0639
     34 H           3.0102    1.2434   -1.9491 H       1  UNL1        0.0836
     35 H          -0.1221   -1.3114    2.5999 H       1  UNL1        0.0625
     36 H          -2.5073   -1.5680    2.8689 H       1  UNL1        0.0639
     37 H          -0.8851    0.6389   -1.1606 H       1  UNL1        0.0836
     38 H          -7.6882   -1.5676    2.3967 H       1  UNL1        0.0715
     39 H          -8.5331    0.6164   -1.8092 H       1  UNL1        0.0845
     40 H          -6.2417    1.1542   -2.6185 H       1  UNL1        0.0845
@<TRIPOS>BOND
     1     1     2    1
     2     2     3    2
     3     3     4    1
     4     4     5    2
     5     5     6    1
     6     6     7   ar
     7     7     8   ar
     8     8     9   ar
     9     9    10   ar
    10    10    11   ar
    11     9    12    1
    12    12    13   ar
    13    13    14   ar
    14    14    15   ar
    15    15    16   ar
    16    16    17   ar
    17    15    18    1
    18    18    19   ar
    19    19    20   ar
    20    20    21   ar
    21    21    22   ar
    22    22    23   ar
    23    23    24   ar
    24    24    25   ar
    25    25    26   ar
    26     5     1    1
    27    11     6   ar
    28    17    12   ar
    29    26    18   ar
    30    26    21   ar
    31     1    27    1
    32     1    28    1
    33     2    29    1
    34     3    30    1
    35     4    31    1
    36     7    32    1
    37     8    33    1
    38    11    34    1
    39    13    35    1
    40    14    36    1
    41    17    37    1
    42    20    38    1
    43    23    39    1
    44    24    40    1
