@<TRIPOS>MOLECULE
*****
 42 46 0 0 0
SMALL
GASTEIGER

@<TRIPOS>ATOM
      1 C          -5.7836    1.7331    0.1372 C.3     1  UNL1       -0.0057
      2 C          -6.0512    2.1380    1.5582 C.2     1  UNL1       -0.0796
      3 C          -4.9678    1.8929    2.3068 C.2     1  UNL1       -0.0650
      4 C          -3.9331    1.3280    1.4790 C.2     1  UNL1       -0.0551
      5 C          -4.3655    1.2177    0.2095 C.2     1  UNL1       -0.0014
      6 C          -3.5411    0.6889   -0.8187 C.ar    1  UNL1        0.1321
      7 C          -3.8326    0.5114   -2.1640 C.ar    1  UNL1       -0.0155
      8 C          -2.6915   -0.0488   -2.7856 C.ar    1  UNL1       -0.0138
      9 C          -1.7345   -0.1988   -1.8041 C.ar    1  UNL1        0.1517
     10 O          -2.2517    0.2476   -0.6196 O.2     1  UNL1       -0.4537
     11 C          -0.4079   -0.7166   -1.9060 C.ar    1  UNL1        0.0825
     12 C           0.2996   -1.2018   -2.9863 C.ar    1  UNL1       -0.0328
     13 C           1.5827   -1.5854   -2.5196 C.ar    1  UNL1       -0.0357
     14 C           1.6409   -1.3126   -1.1651 C.ar    1  UNL1        0.0476
     15 N           0.4120   -0.8049   -0.8086 N.ar    1  UNL1       -0.3517
     16 C           2.7128   -1.5290   -0.1919 C.ar    1  UNL1        0.0060
     17 C           3.1036   -2.8543    0.0555 C.ar    1  UNL1       -0.0520
     18 C           4.0873   -3.1404    0.9960 C.ar    1  UNL1       -0.0605
     19 C           4.6932   -2.1035    1.7004 C.ar    1  UNL1       -0.0540
     20 C           4.3345   -0.7668    1.4685 C.ar    1  UNL1       -0.0173
     21 C           4.9649    0.2650    2.1843 C.ar    1  UNL1       -0.0540
     22 C           4.6364    1.6010    1.9601 C.ar    1  UNL1       -0.0612
     23 C           3.6766    1.9244    1.0110 C.ar    1  UNL1       -0.0611
     24 C           3.0393    0.9103    0.2925 C.ar    1  UNL1       -0.0534
     25 C           3.3387   -0.4575    0.5068 C.ar    1  UNL1       -0.0088
     26 H          -6.4773    0.9490   -0.1820 H       1  UNL1        0.0357
     27 H          -5.8616    2.5936   -0.5347 H       1  UNL1        0.0357
     28 H          -6.9791    2.5612    1.9117 H       1  UNL1        0.0575
     29 H          -4.8633    2.0805    3.3648 H       1  UNL1        0.0615
     30 H          -2.9602    1.0439    1.8534 H       1  UNL1        0.0621
     31 H          -4.7697    0.7610   -2.6420 H       1  UNL1        0.0655
     32 H          -2.5799   -0.3125   -3.8276 H       1  UNL1        0.0656
     33 H          -0.0612   -1.2764   -4.0036 H       1  UNL1        0.0640
     34 H           2.3859   -2.0069   -3.1106 H       1  UNL1        0.0639
     35 H           0.1453   -0.5269    0.1268 H       1  UNL1        0.1660
     36 H           2.6271   -3.6730   -0.4799 H       1  UNL1        0.0624
     37 H           4.3780   -4.1705    1.1837 H       1  UNL1        0.0618
     38 H           5.4583   -2.3482    2.4344 H       1  UNL1        0.0624
     39 H           5.7269    0.0333    2.9257 H       1  UNL1        0.0624
     40 H           5.1364    2.3862    2.5206 H       1  UNL1        0.0618
     41 H           3.4240    2.9642    0.8210 H       1  UNL1        0.0618
     42 H           2.3083    1.2036   -0.4581 H       1  UNL1        0.0624
@<TRIPOS>BOND
     1     1     2    1
     2     2     3    2
     3     3     4    1
     4     4     5    2
     5     5     6    1
     6     6     7   ar
     7     7     8   ar
     8     8     9   ar
     9     9    10   ar
    10     9    11    1
    11    11    12   ar
    12    12    13   ar
    13    13    14   ar
    14    14    15   ar
    15    14    16    1
    16    16    17   ar
    17    17    18   ar
    18    18    19   ar
    19    19    20   ar
    20    20    21   ar
    21    21    22   ar
    22    22    23   ar
    23    23    24   ar
    24    24    25   ar
    25     5     1    1
    26    10     6   ar
    27    15    11   ar
    28    25    16   ar
    29    25    20   ar
    30     1    26    1
    31     1    27    1
    32     2    28    1
    33     3    29    1
    34     4    30    1
    35     7    31    1
    36     8    32    1
    37    12    33    1
    38    13    34    1
    39    15    35    1
    40    17    36    1
    41    18    37    1
    42    19    38    1
    43    21    39    1
    44    22    40    1
    45    23    41    1
    46    24    42    1
