@<TRIPOS>MOLECULE
*****
 41 47 0 0 0
SMALL
GASTEIGER

@<TRIPOS>ATOM
      1 C           5.9266   -1.1397   -0.8810 C.3     1  UNL1       -0.0085
      2 C           7.3258   -0.5980   -0.7955 C.2     1  UNL1       -0.0797
      3 C           7.3117    0.6024   -0.2023 C.2     1  UNL1       -0.0651
      4 C           5.9561    0.9492    0.1364 C.2     1  UNL1       -0.0579
      5 C           5.1159   -0.0325   -0.2471 C.2     1  UNL1       -0.0329
      6 C           3.6608   -0.0522   -0.0911 C.ar    1  UNL1        0.0248
      7 C           2.8968    1.0327    0.3698 C.ar    1  UNL1        0.0379
      8 N           1.5380    1.1095    0.5461 N.ar    1  UNL1       -0.2514
      9 C           0.7486    0.0359    0.2656 C.ar    1  UNL1        0.1092
     10 C          -0.6650    0.1624    0.4629 C.ar    1  UNL1        0.0830
     11 S          -1.7997    0.3853   -0.8179 S.2     1  UNL1       -0.0822
     12 C          -3.1714    0.4587    0.2612 C.ar    1  UNL1        0.0344
     13 C          -4.5121    0.6829   -0.2388 C.ar    1  UNL1        0.0356
     14 C          -5.3342    1.7288    0.1962 C.ar    1  UNL1        0.0380
     15 N          -6.6194    2.0065   -0.2027 N.ar    1  UNL1       -0.2604
     16 C          -7.2458    1.2205   -1.1279 C.ar    1  UNL1        0.0557
     17 C          -6.5440    0.1136   -1.6473 C.ar    1  UNL1        0.1185
     18 N          -7.0028   -0.7725   -2.5465 N.ar    1  UNL1       -0.1892
     19 S          -5.7800   -1.8696   -2.7875 S.2     1  UNL1        0.1165
     20 N          -4.6218   -1.2723   -1.7624 N.ar    1  UNL1       -0.1900
     21 C          -5.1339   -0.1680   -1.1869 C.ar    1  UNL1        0.1110
     22 C          -2.6973    0.3240    1.5229 C.ar    1  UNL1        0.0357
     23 C          -3.1455    0.2843    2.8555 C.ar    1  UNL1       -0.0150
     24 C          -1.9878    0.1002    3.6225 C.ar    1  UNL1        0.0932
     25 O          -0.8232    0.0173    2.8819 O.2     1  UNL1       -0.4617
     26 C          -1.3363    0.1630    1.6283 C.ar    1  UNL1        0.1516
     27 C           1.3517   -1.1469   -0.2183 C.ar    1  UNL1        0.1269
     28 N           0.7474   -2.3034   -0.5524 N.ar    1  UNL1       -0.1886
     29 S           1.9348   -3.3362   -1.0608 S.2     1  UNL1        0.1166
     30 N           3.2718   -2.3794   -0.8742 N.ar    1  UNL1       -0.1901
     31 C           2.8575   -1.1863   -0.4033 C.ar    1  UNL1        0.1108
     32 H           5.8588   -2.0747   -0.3159 H       1  UNL1        0.0356
     33 H           5.6468   -1.3019   -1.9269 H       1  UNL1        0.0356
     34 H           8.2025   -1.1137   -1.1576 H       1  UNL1        0.0575
     35 H           8.1693    1.2266   -0.0021 H       1  UNL1        0.0615
     36 H           5.7092    1.8775    0.6286 H       1  UNL1        0.0620
     37 H           3.3904    1.9697    0.6310 H       1  UNL1        0.0836
     38 H          -4.9564    2.4399    0.9329 H       1  UNL1        0.0836
     39 H          -8.2577    1.4791   -1.4110 H       1  UNL1        0.0852
     40 H          -4.1526    0.3673    3.2382 H       1  UNL1        0.0655
     41 H          -1.8334    0.0101    4.6905 H       1  UNL1        0.1030
@<TRIPOS>BOND
     1     1     2    1
     2     2     3    2
     3     3     4    1
     4     4     5    2
     5     5     6    1
     6     6     7   ar
     7     7     8   ar
     8     8     9   ar
     9     9    10    1
    10    10    11   ar
    11    11    12   ar
    12    12    13    1
    13    13    14   ar
    14    14    15   ar
    15    15    16   ar
    16    16    17   ar
    17    17    18   ar
    18    18    19   ar
    19    19    20   ar
    20    20    21   ar
    21    12    22   ar
    22    22    23   ar
    23    23    24   ar
    24    24    25   ar
    25    25    26   ar
    26     9    27   ar
    27    27    28   ar
    28    28    29   ar
    29    29    30   ar
    30    30    31   ar
    31     5     1    1
    32    31     6   ar
    33    26    10   ar
    34    31    27   ar
    35    21    13   ar
    36    26    22   ar
    37    21    17   ar
    38     1    32    1
    39     1    33    1
    40     2    34    1
    41     3    35    1
    42     4    36    1
    43     7    37    1
    44    14    38    1
    45    16    39    1
    46    23    40    1
    47    24    41    1
