@<TRIPOS>MOLECULE
*****
 42 48 0 0 0
SMALL
GASTEIGER

@<TRIPOS>ATOM
      1 C          -6.0807    1.0093   -0.6129 C.3     1  UNL1       -0.0071
      2 C          -7.4464    0.4662   -0.9255 C.2     1  UNL1       -0.0796
      3 C          -7.3909   -0.8689   -1.0164 C.2     1  UNL1       -0.0650
      4 C          -6.0393   -1.3091   -0.7816 C.2     1  UNL1       -0.0565
      5 C          -5.2481   -0.2477   -0.5434 C.2     1  UNL1       -0.0161
      6 C          -3.8222   -0.1697   -0.2545 C.ar    1  UNL1        0.0954
      7 N          -3.2778    1.0747   -0.0566 N.ar    1  UNL1       -0.2524
      8 C          -1.9459    1.2394    0.2202 C.ar    1  UNL1        0.0387
      9 C          -0.9780    0.2429    0.3355 C.ar    1  UNL1        0.0361
     10 C           0.4126    0.4924    0.6339 C.ar    1  UNL1        0.0378
     11 S           1.6723    0.1645   -0.4854 S.2     1  UNL1       -0.0858
     12 C           2.9134    0.7077    0.5876 C.ar    1  UNL1        0.0367
     13 C           4.2965    0.6860    0.2229 C.ar    1  UNL1        0.0503
     14 S           5.3635    2.0455    0.4104 S.2     1  UNL1       -0.0934
     15 C           6.7365    1.2049   -0.2451 C.ar    1  UNL1       -0.0145
     16 C           6.3338   -0.0410   -0.5648 C.ar    1  UNL1        0.0073
     17 C           6.8272   -1.2529   -1.1051 C.ar    1  UNL1       -0.0361
     18 C           5.7495   -2.1638   -1.1267 C.ar    1  UNL1        0.0028
     19 N           4.5824   -1.5922   -0.6239 N.ar    1  UNL1       -0.3597
     20 C           5.0102   -0.3306   -0.3154 C.ar    1  UNL1        0.0620
     21 C           2.3092    1.1314    1.7276 C.ar    1  UNL1        0.0051
     22 C           2.7777    1.6631    2.9606 C.ar    1  UNL1       -0.0458
     23 C           1.7429    1.9385    3.8610 C.ar    1  UNL1       -0.0231
     24 S           0.1158    1.5730    3.3122 S.2     1  UNL1       -0.0955
     25 C           0.9172    1.0246    1.7876 C.ar    1  UNL1        0.0348
     26 C          -1.4824   -1.0667    0.1471 C.ar    1  UNL1        0.1116
     27 N          -0.7828   -2.2153    0.2174 N.ar    1  UNL1       -0.1900
     28 S          -1.8454   -3.4482   -0.0779 S.2     1  UNL1        0.1166
     29 N          -3.2451   -2.5985   -0.3072 N.ar    1  UNL1       -0.1886
     30 C          -2.9516   -1.2924   -0.1596 C.ar    1  UNL1        0.1260
     31 H          -6.0901    1.5437    0.3427 H       1  UNL1        0.0356
     32 H          -5.7419    1.6776   -1.4113 H       1  UNL1        0.0356
     33 H          -8.3305    1.0717   -1.0547 H       1  UNL1        0.0575
     34 H          -8.2162   -1.5310   -1.2306 H       1  UNL1        0.0615
     35 H          -5.7548   -2.3501   -0.8047 H       1  UNL1        0.0621
     36 H          -1.6636    2.2848    0.3509 H       1  UNL1        0.0837
     37 H           7.7025    1.6796   -0.3376 H       1  UNL1        0.0700
     38 H           7.8327   -1.4667   -1.4425 H       1  UNL1        0.0639
     39 H           5.7231   -3.1913   -1.4668 H       1  UNL1        0.0807
     40 H           3.6507   -1.9753   -0.5096 H       1  UNL1        0.1654
     41 H           3.8175    1.8429    3.2062 H       1  UNL1        0.0629
     42 H           1.8465    2.3470    4.8574 H       1  UNL1        0.0694
@<TRIPOS>BOND
     1     1     2    1
     2     2     3    2
     3     3     4    1
     4     4     5    2
     5     5     6    1
     6     6     7   ar
     7     7     8   ar
     8     8     9   ar
     9     9    10    1
    10    10    11   ar
    11    11    12   ar
    12    12    13    1
    13    13    14   ar
    14    14    15   ar
    15    15    16   ar
    16    16    17   ar
    17    17    18   ar
    18    18    19   ar
    19    19    20   ar
    20    12    21   ar
    21    21    22   ar
    22    22    23   ar
    23    23    24   ar
    24    24    25   ar
    25     9    26   ar
    26    26    27   ar
    27    27    28   ar
    28    28    29   ar
    29    29    30   ar
    30     5     1    1
    31    30     6   ar
    32    25    10   ar
    33    30    26   ar
    34    20    13   ar
    35    25    21   ar
    36    20    16   ar
    37     1    31    1
    38     1    32    1
    39     2    33    1
    40     3    34    1
    41     4    35    1
    42     8    36    1
    43    15    37    1
    44    17    38    1
    45    18    39    1
    46    19    40    1
    47    22    41    1
    48    23    42    1
