@<TRIPOS>MOLECULE
*****
 32 35 0 0 0
SMALL
GASTEIGER

@<TRIPOS>ATOM
      1 C          -5.1793    1.3120   -0.5144 C.3     1  UNL1       -0.0067
      2 C          -6.4871    0.6505   -0.1893 C.2     1  UNL1       -0.0796
      3 C          -6.2599   -0.5674    0.3178 C.2     1  UNL1       -0.0650
      4 C          -4.8395   -0.8070    0.3698 C.2     1  UNL1       -0.0560
      5 C          -4.1693    0.2612   -0.1051 C.2     1  UNL1       -0.0115
      6 C          -2.7511    0.3746   -0.2024 C.ar    1  UNL1        0.1051
      7 N          -2.1318    1.4397   -0.6747 N.ar    1  UNL1       -0.2470
      8 C          -0.7641    1.2632   -0.6476 C.ar    1  UNL1        0.0429
      9 C          -0.2991    0.0564   -0.1529 C.ar    1  UNL1        0.0357
     10 S          -1.6718   -0.8835    0.2928 S.2     1  UNL1       -0.0678
     11 C           1.0522   -0.3788   -0.0158 C.2     1  UNL1       -0.0278
     12 C           2.3126    0.3792   -0.3817 C.3     1  UNL1       -0.0002
     13 C           3.4247   -0.5823   -0.0129 C.2     1  UNL1       -0.0278
     14 C           2.8573   -1.6977    0.4804 C.2     1  UNL1       -0.0569
     15 C           1.4202   -1.5744    0.4786 C.2     1  UNL1       -0.0569
     16 C           4.8307   -0.3834   -0.1470 C.ar    1  UNL1        0.0351
     17 C           5.4975    0.7298   -0.6439 C.ar    1  UNL1        0.0422
     18 N           6.8775    0.6757   -0.6694 N.ar    1  UNL1       -0.2551
     19 C           7.2659   -0.4824   -0.1903 C.ar    1  UNL1        0.0652
     20 S           6.0253   -1.5488    0.3069 S.2     1  UNL1       -0.0758
     21 H          -5.1108    1.5349   -1.5839 H       1  UNL1        0.0356
     22 H          -5.0535    2.2322    0.0649 H       1  UNL1        0.0356
     23 H          -7.4562    1.0997   -0.3457 H       1  UNL1        0.0575
     24 H          -7.0081   -1.2749    0.6428 H       1  UNL1        0.0615
     25 H          -4.4277   -1.7317    0.7464 H       1  UNL1        0.0621
     26 H          -0.1354    2.0677   -1.0101 H       1  UNL1        0.0841
     27 H           2.3335    0.6077   -1.4530 H       1  UNL1        0.0362
     28 H           2.3916    1.3070    0.1955 H       1  UNL1        0.0362
     29 H           3.3537   -2.5873    0.8404 H       1  UNL1        0.0621
     30 H           0.7786   -2.3664    0.8372 H       1  UNL1        0.0621
     31 H           5.0127    1.6277   -1.0088 H       1  UNL1        0.0841
     32 H           8.3107   -0.7532   -0.1118 H       1  UNL1        0.0907
@<TRIPOS>BOND
     1     1     2    1
     2     2     3    2
     3     3     4    1
     4     4     5    2
     5     5     6    1
     6     6     7   ar
     7     7     8   ar
     8     8     9   ar
     9     9    10   ar
    10     9    11    1
    11    11    12    1
    12    12    13    1
    13    13    14    2
    14    14    15    1
    15    13    16    1
    16    16    17   ar
    17    17    18   ar
    18    18    19   ar
    19    19    20   ar
    20     5     1    1
    21    10     6   ar
    22    15    11    2
    23    20    16   ar
    24     1    21    1
    25     1    22    1
    26     2    23    1
    27     3    24    1
    28     4    25    1
    29     8    26    1
    30    12    27    1
    31    12    28    1
    32    14    29    1
    33    15    30    1
    34    17    31    1
    35    19    32    1
