@<TRIPOS>MOLECULE
*****
 45 50 0 0 0
SMALL
GASTEIGER

@<TRIPOS>ATOM
      1 C          -6.1475    0.4308    0.2108 C.3     1  UNL1       -0.0081
      2 C          -7.1459    1.0661   -0.7104 C.2     1  UNL1       -0.0797
      3 C          -6.5035    1.6560   -1.7249 C.2     1  UNL1       -0.0651
      4 C          -5.0841    1.4674   -1.5653 C.2     1  UNL1       -0.0575
      5 C          -4.8214    0.7577   -0.4493 C.2     1  UNL1       -0.0293
      6 C          -3.5061    0.4038   -0.0144 C.ar    1  UNL1        0.0236
      7 S          -2.0622    0.8620   -0.8888 S.2     1  UNL1       -0.0877
      8 C          -0.9904    0.0894    0.2135 C.ar    1  UNL1        0.0246
      9 C          -1.7020   -0.4857    1.2285 C.ar    1  UNL1       -0.0211
     10 C          -1.3981   -1.2722    2.4571 C.3     1  UNL1       -0.0075
     11 C          -2.8106   -1.5123    2.9891 C.2     1  UNL1       -0.0791
     12 C          -3.7411   -0.9505    2.1845 C.2     1  UNL1       -0.0568
     13 C          -3.1010   -0.3086    1.0885 C.ar    1  UNL1       -0.0068
     14 C           0.4381    0.1433    0.0047 C.ar    1  UNL1       -0.0002
     15 C           1.3333    0.8968    0.7956 C.ar    1  UNL1       -0.0522
     16 C           2.7592    0.9215    0.5873 C.ar    1  UNL1       -0.0513
     17 C           3.4544    0.1936   -0.4261 C.ar    1  UNL1        0.0111
     18 C           4.9016    0.2135   -0.6302 C.ar    1  UNL1        0.0716
     19 C           5.8008    0.2564    0.4362 C.ar    1  UNL1       -0.0357
     20 C           7.1699    0.2920    0.1766 C.ar    1  UNL1       -0.0583
     21 C           7.6126    0.2873   -1.1384 C.ar    1  UNL1       -0.0436
     22 C           6.6628    0.2440   -2.1421 C.ar    1  UNL1        0.0283
     23 N           5.3308    0.2059   -1.9168 N.ar    1  UNL1       -0.2550
     24 C           2.5357   -0.5464   -1.1857 C.ar    1  UNL1        0.0296
     25 C           2.7828   -1.3989   -2.2328 C.ar    1  UNL1        0.1000
     26 O           1.6121   -1.9463   -2.6789 O.2     1  UNL1       -0.4698
     27 C           0.6020   -1.4383   -1.9115 C.ar    1  UNL1        0.1000
     28 C           1.1177   -0.5728   -0.9810 C.ar    1  UNL1        0.0287
     29 H          -6.3088   -0.6504    0.2662 H       1  UNL1        0.0356
     30 H          -6.2131    0.8702    1.2113 H       1  UNL1        0.0356
     31 H          -8.2155    1.0445   -0.5677 H       1  UNL1        0.0575
     32 H          -6.9554    2.1936   -2.5447 H       1  UNL1        0.0615
     33 H          -4.3740    1.8637   -2.2762 H       1  UNL1        0.0621
     34 H          -0.9038   -2.2191    2.2230 H       1  UNL1        0.0356
     35 H          -0.8053   -0.6967    3.1735 H       1  UNL1        0.0356
     36 H          -3.0205   -2.0641    3.8933 H       1  UNL1        0.0575
     37 H          -4.8077   -0.9858    2.3497 H       1  UNL1        0.0621
     38 H           0.9286    1.5073    1.6040 H       1  UNL1        0.0624
     39 H           3.3365    1.5662    1.2526 H       1  UNL1        0.0624
     40 H           5.4506    0.2492    1.4632 H       1  UNL1        0.0639
     41 H           7.8822    0.3217    0.9961 H       1  UNL1        0.0619
     42 H           8.6698    0.3155   -1.3761 H       1  UNL1        0.0633
     43 H           6.9535    0.2389   -3.1887 H       1  UNL1        0.0830
     44 H           3.6725   -1.7173   -2.7580 H       1  UNL1        0.1036
     45 H          -0.3895   -1.7927   -2.1560 H       1  UNL1        0.1036
@<TRIPOS>BOND
     1     1     2    1
     2     2     3    2
     3     3     4    1
     4     4     5    2
     5     5     6    1
     6     6     7   ar
     7     7     8   ar
     8     8     9   ar
     9     9    10    1
    10    10    11    1
    11    11    12    2
    12    12    13    1
    13     8    14    1
    14    14    15   ar
    15    15    16   ar
    16    16    17   ar
    17    17    18    1
    18    18    19   ar
    19    19    20   ar
    20    20    21   ar
    21    21    22   ar
    22    22    23   ar
    23    17    24   ar
    24    24    25   ar
    25    25    26   ar
    26    26    27   ar
    27    27    28   ar
    28     5     1    1
    29    13     6   ar
    30    28    14   ar
    31    13     9   ar
    32    23    18   ar
    33    28    24   ar
    34     1    29    1
    35     1    30    1
    36     2    31    1
    37     3    32    1
    38     4    33    1
    39    10    34    1
    40    10    35    1
    41    11    36    1
    42    12    37    1
    43    15    38    1
    44    16    39    1
    45    19    40    1
    46    20    41    1
    47    21    42    1
    48    22    43    1
    49    25    44    1
    50    27    45    1
