@<TRIPOS>MOLECULE
*****
 45 51 0 0 0
SMALL
GASTEIGER

@<TRIPOS>ATOM
      1 C           6.3450   -0.2468    1.0609 C.3     1  UNL1        0.0000
      2 C           7.3062   -1.3898    0.9245 C.2     1  UNL1        0.0000
      3 C           6.6746   -2.4438    0.3946 C.2     1  UNL1        0.0000
      4 C           5.2977   -2.1008    0.1450 C.2     1  UNL1        0.0000
      5 C           5.0534   -0.8286    0.5174 C.2     1  UNL1        0.0000
      6 C           3.7861   -0.1872    0.3954 C.ar    1  UNL1        0.0000
      7 S           2.3396   -0.9888   -0.1999 S.2     1  UNL1        0.0000
      8 C           1.3324    0.4057   -0.0395 C.ar    1  UNL1        0.0000
      9 C          -0.0612    0.4357   -0.3609 C.ar    1  UNL1        0.0000
     10 S          -1.2289    0.9681    0.8082 S.2     1  UNL1        0.0000
     11 C          -2.5654    0.6931   -0.2413 C.ar    1  UNL1        0.0000
     12 C          -2.1112    0.2147   -1.4318 C.ar    1  UNL1        0.0000
     13 SI         -2.8898   -0.3034   -3.0627 Si      1  UNL1        0.0000
     14 C          -1.1324   -0.6871   -3.7104 C.2     1  UNL1        0.0000
     15 C          -0.1933   -0.4278   -2.7742 C.2     1  UNL1        0.0000
     16 C          -0.6988    0.0612   -1.5225 C.ar    1  UNL1        0.0000
     17 C          -3.9112    0.9366    0.1741 C.ar    1  UNL1        0.0000
     18 S          -4.5708    2.5331    0.2375 S.2     1  UNL1        0.0000
     19 C          -6.1206    1.9730    0.7646 C.ar    1  UNL1        0.0000
     20 C          -6.0962    0.6159    0.8699 C.ar    1  UNL1        0.0000
     21 C          -7.0154   -0.3942    1.2455 C.2     1  UNL1        0.0000
     22 C          -6.4040   -1.5987    1.1717 C.2     1  UNL1        0.0000
     23 C          -4.9478   -1.4601    0.7108 C.3     1  UNL1        0.0000
     24 C          -4.8575    0.0180    0.5431 C.ar    1  UNL1        0.0000
     25 C           2.0938    1.4039    0.4482 C.ar    1  UNL1        0.0000
     26 O           1.7054    2.6826    0.7193 O.2     1  UNL1        0.0000
     27 C           2.9005    3.2020    1.1750 C.ar    1  UNL1        0.0000
     28 C           3.9599    2.2878    1.1736 C.ar    1  UNL1        0.0000
     29 C           3.4111    1.0870    0.6827 C.ar    1  UNL1        0.0000
     30 H           6.2385    0.0466    2.1104 H       1  UNL1        0.0000
     31 H           6.6765    0.6103    0.4662 H       1  UNL1        0.0000
     32 H           8.3457   -1.3573    1.2137 H       1  UNL1        0.0000
     33 H           7.1083   -3.4088    0.1789 H       1  UNL1        0.0000
     34 H           4.6024   -2.8071   -0.2845 H       1  UNL1        0.0000
     35 H          -3.5008    0.8043   -3.8381 H       1  UNL1        0.0000
     36 H          -3.6962   -1.5474   -2.9761 H       1  UNL1        0.0000
     37 H          -0.9790   -1.0553   -4.7121 H       1  UNL1        0.0000
     38 H           0.8661   -0.5706   -2.9541 H       1  UNL1        0.0000
     39 H          -6.9256    2.6676    0.9577 H       1  UNL1        0.0000
     40 H          -8.0384   -0.2196    1.5464 H       1  UNL1        0.0000
     41 H          -6.8642   -2.5466    1.4072 H       1  UNL1        0.0000
     42 H          -4.7878   -1.9907   -0.2316 H       1  UNL1        0.0000
     43 H          -4.2606   -1.8249    1.4788 H       1  UNL1        0.0000
     44 H           2.8417    4.2432    1.4653 H       1  UNL1        0.0000
     45 H           4.9721    2.4953    1.4877 H       1  UNL1        0.0000
@<TRIPOS>BOND
     1     1     2    1
     2     2     3    2
     3     3     4    1
     4     4     5    2
     5     5     6    1
     6     6     7   ar
     7     7     8   ar
     8     8     9    1
     9     9    10   ar
    10    10    11   ar
    11    11    12   ar
    12    12    13    1
    13    13    14    1
    14    14    15    2
    15    15    16    1
    16    11    17    1
    17    17    18   ar
    18    18    19   ar
    19    19    20   ar
    20    20    21    1
    21    21    22    2
    22    22    23    1
    23    23    24    1
    24     8    25   ar
    25    25    26   ar
    26    26    27   ar
    27    27    28   ar
    28    28    29   ar
    29     5     1    1
    30    29     6   ar
    31    16     9   ar
    32    24    17   ar
    33    29    25   ar
    34    16    12   ar
    35    24    20   ar
    36     1    30    1
    37     1    31    1
    38     2    32    1
    39     3    33    1
    40     4    34    1
    41    13    35    1
    42    13    36    1
    43    14    37    1
    44    15    38    1
    45    19    39    1
    46    21    40    1
    47    22    41    1
    48    23    42    1
    49    23    43    1
    50    27    44    1
    51    28    45    1
