@<TRIPOS>MOLECULE
*****
 39 44 0 0 0
SMALL
GASTEIGER

@<TRIPOS>ATOM
      1 C           5.6663    0.2478   -0.3643 C.3     1  UNL1       -0.0081
      2 C           6.5782    1.3095   -0.9037 C.2     1  UNL1       -0.0797
      3 C           5.8507    2.3469   -1.3308 C.2     1  UNL1       -0.0651
      4 C           4.4541    2.0675   -1.1182 C.2     1  UNL1       -0.0575
      5 C           4.2853    0.8521   -0.5554 C.2     1  UNL1       -0.0288
      6 C           3.0014    0.3174   -0.2351 C.ar    1  UNL1        0.0305
      7 S           1.4963    1.1270   -0.5380 S.2     1  UNL1       -0.0863
      8 C           0.5372   -0.1389    0.1130 C.ar    1  UNL1        0.0353
      9 C          -0.8911   -0.0660    0.1813 C.ar    1  UNL1        0.0354
     10 S          -1.8703    0.1954   -1.2082 S.2     1  UNL1       -0.0845
     11 C          -3.3545    0.1065   -0.3228 C.ar    1  UNL1        0.0503
     12 C          -4.6339    0.2413   -0.9598 C.ar    1  UNL1        0.0542
     13 C          -5.8918   -0.1975   -0.5865 C.ar    1  UNL1       -0.0359
     14 C          -6.8153    0.2045   -1.5840 C.ar    1  UNL1       -0.0438
     15 C          -6.1042    0.8750   -2.5504 C.ar    1  UNL1        0.0022
     16 N          -4.7891    0.8865   -2.1689 N.ar    1  UNL1       -0.3602
     17 C          -3.0931   -0.0940    1.0103 C.ar    1  UNL1        0.0361
     18 S          -4.1650   -0.2344    2.4679 S.2     1  UNL1       -0.0954
     19 C          -2.6775   -0.4212    3.3770 C.ar    1  UNL1       -0.0231
     20 C          -1.4920   -0.3750    2.6389 C.ar    1  UNL1       -0.0458
     21 C          -1.7176   -0.1887    1.2485 C.ar    1  UNL1        0.0051
     22 C           1.3778   -1.1169    0.5260 C.ar    1  UNL1        0.0051
     23 C           1.1664   -2.3935    1.1120 C.ar    1  UNL1       -0.0458
     24 C           2.3582   -3.0757    1.3665 C.ar    1  UNL1       -0.0231
     25 S           3.8353   -2.2474    0.9180 S.2     1  UNL1       -0.0955
     26 C           2.7496   -0.9035    0.3502 C.ar    1  UNL1        0.0344
     27 H           5.7821   -0.6766   -0.9388 H       1  UNL1        0.0356
     28 H           5.8824    0.0679    0.6933 H       1  UNL1        0.0356
     29 H           7.6545    1.2359   -0.9364 H       1  UNL1        0.0575
     30 H           6.2287    3.2583   -1.7687 H       1  UNL1        0.0615
     31 H           3.6888    2.7781   -1.3947 H       1  UNL1        0.0621
     32 H          -6.1359   -0.7604    0.3043 H       1  UNL1        0.0639
     33 H          -7.8815    0.0188   -1.5941 H       1  UNL1        0.0633
     34 H          -6.4173    1.3404   -3.4753 H       1  UNL1        0.0807
     35 H          -4.0324    1.3084   -2.6908 H       1  UNL1        0.1653
     36 H          -2.7678   -0.5518    4.4469 H       1  UNL1        0.0694
     37 H          -0.5178   -0.4648    3.1049 H       1  UNL1        0.0629
     38 H           0.1970   -2.8197    1.3422 H       1  UNL1        0.0629
     39 H           2.4579   -4.0592    1.8058 H       1  UNL1        0.0694
@<TRIPOS>BOND
     1     1     2    1
     2     2     3    2
     3     3     4    1
     4     4     5    2
     5     5     6    1
     6     6     7   ar
     7     7     8   ar
     8     8     9    1
     9     9    10   ar
    10    10    11   ar
    11    11    12    1
    12    12    13   ar
    13    13    14   ar
    14    14    15   ar
    15    15    16   ar
    16    11    17   ar
    17    17    18   ar
    18    18    19   ar
    19    19    20   ar
    20    20    21   ar
    21     8    22   ar
    22    22    23   ar
    23    23    24   ar
    24    24    25   ar
    25    25    26   ar
    26     5     1    1
    27    26     6   ar
    28    21     9   ar
    29    26    22   ar
    30    16    12   ar
    31    21    17   ar
    32     1    27    1
    33     1    28    1
    34     2    29    1
    35     3    30    1
    36     4    31    1
    37    13    32    1
    38    14    33    1
    39    15    34    1
    40    16    35    1
    41    19    36    1
    42    20    37    1
    43    23    38    1
    44    24    39    1
