@<TRIPOS>MOLECULE
*****
 42 48 0 0 0
SMALL
GASTEIGER

@<TRIPOS>ATOM
      1 SI         -4.6629    3.7820   -0.7122 Si      1  UNL1        0.0000
      2 C          -5.4592    2.1167   -0.4562 C.2     1  UNL1        0.0000
      3 C          -4.5293    1.1604   -0.2751 C.ar    1  UNL1        0.0000
      4 C          -4.7600   -0.2250   -0.0515 C.ar    1  UNL1        0.0000
      5 C          -5.9085   -1.0317    0.0538 C.ar    1  UNL1        0.0000
      6 C          -5.4408   -2.3125    0.2773 C.ar    1  UNL1        0.0000
      7 O          -4.0759   -2.3383    0.3150 O.2     1  UNL1        0.0000
      8 C          -3.6763   -1.0573    0.1129 C.ar    1  UNL1        0.0000
      9 C          -2.2682   -0.6955    0.0875 C.ar    1  UNL1        0.0000
     10 C          -1.2459   -1.6309    0.2674 C.ar    1  UNL1        0.0000
     11 C           0.0972   -1.2283    0.2337 C.ar    1  UNL1        0.0000
     12 C           1.1354   -2.1481    0.4115 C.ar    1  UNL1        0.0000
     13 C           2.4739   -1.7366    0.3762 C.ar    1  UNL1        0.0000
     14 C           2.8276   -0.3975    0.1632 C.ar    1  UNL1        0.0000
     15 C           1.7717    0.5178   -0.0143 C.ar    1  UNL1        0.0000
     16 C           0.4169    0.1277    0.0171 C.ar    1  UNL1        0.0000
     17 C          -0.6193    1.0645   -0.1634 C.ar    1  UNL1        0.0000
     18 C          -1.9647    0.6749   -0.1319 C.ar    1  UNL1        0.0000
     19 C          -3.1065    1.6323   -0.3183 C.ar    1  UNL1        0.0000
     20 C          -2.9876    2.9603   -0.5351 C.2     1  UNL1        0.0000
     21 C           4.2509    0.0146    0.1299 C.ar    1  UNL1        0.0000
     22 S           4.7076    1.6968   -0.1367 S.2     1  UNL1        0.0000
     23 C           6.4013    1.4001   -0.0463 C.ar    1  UNL1        0.0000
     24 C           6.5675    0.0873    0.1745 C.ar    1  UNL1        0.0000
     25 O           7.7645   -0.5458    0.3083 O.2     1  UNL1        0.0000
     26 C           7.3216   -1.8357    0.5105 C.ar    1  UNL1        0.0000
     27 C           5.9280   -1.9695    0.4985 C.ar    1  UNL1        0.0000
     28 C           5.4213   -0.6692    0.2714 C.ar    1  UNL1        0.0000
     29 H          -4.8851    4.3146   -2.0776 H       1  UNL1        0.0000
     30 H          -4.9457    4.7241    0.3968 H       1  UNL1        0.0000
     31 H          -6.5301    1.9934   -0.4620 H       1  UNL1        0.0000
     32 H          -6.9447   -0.7359   -0.0205 H       1  UNL1        0.0000
     33 H          -5.9240   -3.2684    0.4237 H       1  UNL1        0.0000
     34 H          -1.5011   -2.6752    0.4340 H       1  UNL1        0.0000
     35 H           0.9149   -3.2004    0.5803 H       1  UNL1        0.0000
     36 H           3.2281   -2.5010    0.5214 H       1  UNL1        0.0000
     37 H           1.9850    1.5709   -0.1834 H       1  UNL1        0.0000
     38 H          -0.3603    2.1065   -0.3295 H       1  UNL1        0.0000
     39 H          -2.0892    3.5497   -0.6107 H       1  UNL1        0.0000
     40 H           7.1572    2.1640   -0.1540 H       1  UNL1        0.0000
     41 H           8.1170   -2.5565    0.6489 H       1  UNL1        0.0000
     42 H           5.3980   -2.8989    0.6390 H       1  UNL1        0.0000
@<TRIPOS>BOND
     1     1     2    1
     2     2     3    2
     3     3     4   ar
     4     4     5   ar
     5     5     6   ar
     6     6     7   ar
     7     7     8   ar
     8     8     9   ar
     9     9    10   ar
    10    10    11   ar
    11    11    12   ar
    12    12    13   ar
    13    13    14   ar
    14    14    15   ar
    15    15    16   ar
    16    16    17   ar
    17    17    18   ar
    18    18    19   ar
    19    19    20    2
    20    14    21    1
    21    21    22   ar
    22    22    23   ar
    23    23    24   ar
    24    24    25   ar
    25    25    26   ar
    26    26    27   ar
    27    27    28   ar
    28    20     1    1
    29    28    21   ar
    30    19     3   ar
    31    28    24   ar
    32     8     4   ar
    33    18     9   ar
    34    16    11   ar
    35     1    29    1
    36     1    30    1
    37     2    31    1
    38     5    32    1
    39     6    33    1
    40    10    34    1
    41    12    35    1
    42    13    36    1
    43    15    37    1
    44    17    38    1
    45    20    39    1
    46    23    40    1
    47    26    41    1
    48    27    42    1
