@<TRIPOS>MOLECULE
*****
 49 55 0 0 0
SMALL
GASTEIGER

@<TRIPOS>ATOM
      1 C          -6.4536   -1.0093   -0.2152 C.3     1  UNL1       -0.0081
      2 C          -7.8102   -0.3960   -0.4102 C.2     1  UNL1       -0.0797
      3 C          -7.7115    0.9389   -0.3696 C.2     1  UNL1       -0.0651
      4 C          -6.3366    1.3098   -0.1527 C.2     1  UNL1       -0.0574
      5 C          -5.5701    0.2080   -0.0401 C.2     1  UNL1       -0.0279
      6 C          -4.1707    0.2690    0.1499 C.ar    1  UNL1        0.0401
      7 S          -3.0521   -0.7194   -0.7342 S.2     1  UNL1       -0.0853
      8 C          -1.6463   -0.0533    0.0484 C.ar    1  UNL1        0.0378
      9 C          -0.3080   -0.4600   -0.2844 C.ar    1  UNL1        0.0546
     10 S           0.9330    0.7199   -0.4923 S.2     1  UNL1       -0.0833
     11 C           2.1303   -0.4547   -0.8577 C.ar    1  UNL1        0.0480
     12 C           3.4985   -0.0126   -1.1452 C.ar    1  UNL1       -0.0015
     13 C           3.7951    0.3904   -2.4583 C.ar    1  UNL1       -0.0529
     14 C           5.0726    0.8248   -2.7946 C.ar    1  UNL1       -0.0606
     15 C           6.0690    0.8603   -1.8227 C.ar    1  UNL1       -0.0540
     16 C           5.8068    0.4605   -0.5031 C.ar    1  UNL1       -0.0173
     17 C           6.8277    0.5032    0.4613 C.ar    1  UNL1       -0.0540
     18 C           6.5906    0.1102    1.7775 C.ar    1  UNL1       -0.0612
     19 C           5.3281   -0.3328    2.1477 C.ar    1  UNL1       -0.0611
     20 C           4.3024   -0.3811    1.2010 C.ar    1  UNL1       -0.0534
     21 C           4.5100    0.0128   -0.1435 C.ar    1  UNL1       -0.0096
     22 C           1.6010   -1.7240   -0.8257 C.ar    1  UNL1        0.1045
     23 N           2.3315   -2.8499   -1.0745 N.ar    1  UNL1       -0.2508
     24 C           1.5653   -3.9659   -0.9599 C.ar    1  UNL1        0.0464
     25 C           0.2071   -3.9773   -0.6295 C.ar    1  UNL1        0.0464
     26 N          -0.5462   -2.8747   -0.3764 N.ar    1  UNL1       -0.2507
     27 C           0.1929   -1.7301   -0.4900 C.ar    1  UNL1        0.1050
     28 C          -2.0901    0.8570    0.9467 C.ar    1  UNL1        0.0156
     29 C          -1.6185    1.7571    1.9400 C.ar    1  UNL1       -0.0355
     30 C          -2.7480    2.3748    2.5154 C.ar    1  UNL1        0.0028
     31 N          -3.9301    1.9141    1.9425 N.ar    1  UNL1       -0.3597
     32 C          -3.4575    1.0273    1.0145 C.ar    1  UNL1        0.0618
     33 H          -6.4362   -1.6426    0.6774 H       1  UNL1        0.0356
     34 H          -6.1651   -1.5963   -1.0926 H       1  UNL1        0.0356
     35 H          -8.7189   -0.9576   -0.5659 H       1  UNL1        0.0575
     36 H          -8.5205    1.6438   -0.4885 H       1  UNL1        0.0615
     37 H          -6.0049    2.3376   -0.1254 H       1  UNL1        0.0621
     38 H           3.0255    0.3627   -3.2270 H       1  UNL1        0.0624
     39 H           5.2927    1.1339   -3.8128 H       1  UNL1        0.0618
     40 H           7.0622    1.2031   -2.1059 H       1  UNL1        0.0624
     41 H           7.8245    0.8455    0.1912 H       1  UNL1        0.0624
     42 H           7.3922    0.1489    2.5101 H       1  UNL1        0.0618
     43 H           5.1364   -0.6439    3.1711 H       1  UNL1        0.0618
     44 H           3.3283   -0.7380    1.5279 H       1  UNL1        0.0624
     45 H           2.0893   -4.8991   -1.1465 H       1  UNL1        0.0845
     46 H          -0.3282   -4.9200   -0.5580 H       1  UNL1        0.0845
     47 H          -0.5923    1.9432    2.2283 H       1  UNL1        0.0639
     48 H          -2.8014    3.1117    3.3065 H       1  UNL1        0.0807
     49 H          -4.8960    2.1413    2.1448 H       1  UNL1        0.1654
@<TRIPOS>BOND
     1     1     2    1
     2     2     3    2
     3     3     4    1
     4     4     5    2
     5     5     6    1
     6     6     7   ar
     7     7     8   ar
     8     8     9    1
     9     9    10   ar
    10    10    11   ar
    11    11    12    1
    12    12    13   ar
    13    13    14   ar
    14    14    15   ar
    15    15    16   ar
    16    16    17   ar
    17    17    18   ar
    18    18    19   ar
    19    19    20   ar
    20    20    21   ar
    21    11    22   ar
    22    22    23   ar
    23    23    24   ar
    24    24    25   ar
    25    25    26   ar
    26    26    27   ar
    27     8    28   ar
    28    28    29   ar
    29    29    30   ar
    30    30    31   ar
    31    31    32   ar
    32     5     1    1
    33    32     6   ar
    34    27     9   ar
    35    32    28   ar
    36    21    12   ar
    37    27    22   ar
    38    21    16   ar
    39     1    33    1
    40     1    34    1
    41     2    35    1
    42     3    36    1
    43     4    37    1
    44    13    38    1
    45    14    39    1
    46    15    40    1
    47    17    41    1
    48    18    42    1
    49    19    43    1
    50    20    44    1
    51    24    45    1
    52    25    46    1
    53    29    47    1
    54    30    48    1
    55    31    49    1
