@<TRIPOS>MOLECULE
*****
 40 45 0 0 0
SMALL
GASTEIGER

@<TRIPOS>ATOM
      1 C           5.7684    0.8064   -0.7886 C.3     1  UNL1       -0.0080
      2 C           6.9888   -0.0572   -0.6602 C.2     1  UNL1       -0.0797
      3 C           6.6294   -1.2861   -0.2711 C.2     1  UNL1       -0.0651
      4 C           5.1982   -1.3389   -0.1149 C.2     1  UNL1       -0.0574
      5 C           4.6477   -0.1431   -0.4044 C.2     1  UNL1       -0.0264
      6 C           3.2541    0.1123   -0.3407 C.ar    1  UNL1        0.0590
      7 S           2.0091   -1.0040    0.1160 S.2     1  UNL1       -0.0836
      8 C           0.7108    0.1423   -0.0928 C.ar    1  UNL1        0.0380
      9 C          -0.6627   -0.2081    0.1385 C.ar    1  UNL1        0.0380
     10 S          -1.9749    0.5527   -0.7260 S.2     1  UNL1       -0.0833
     11 C          -3.2074   -0.3718    0.0636 C.ar    1  UNL1        0.0642
     12 C          -4.6326   -0.2419   -0.2168 C.ar    1  UNL1        0.0104
     13 C          -5.2140    0.9856   -0.5583 C.ar    1  UNL1       -0.0505
     14 C          -6.5807    1.0686   -0.8256 C.ar    1  UNL1       -0.0430
     15 C          -7.3382   -0.0862   -0.7452 C.ar    1  UNL1        0.0276
     16 N          -6.8274   -1.2905   -0.4210 N.ar    1  UNL1       -0.2626
     17 C          -5.4949   -1.3379   -0.1635 C.ar    1  UNL1        0.0359
     18 C          -2.5930   -1.2027    0.9311 C.ar    1  UNL1        0.1502
     19 O          -3.1868   -2.1004    1.7679 O.2     1  UNL1       -0.4617
     20 C          -2.0700   -2.6201    2.3911 C.ar    1  UNL1        0.0932
     21 C          -0.8617   -2.0650    1.9559 C.ar    1  UNL1       -0.0150
     22 C          -1.2200   -1.1180    0.9755 C.ar    1  UNL1        0.0361
     23 C           1.2771    1.3059   -0.4963 C.ar    1  UNL1        0.0360
     24 C           0.9310    2.6280   -0.8404 C.ar    1  UNL1       -0.0150
     25 C           2.1418    3.2575   -1.1487 C.ar    1  UNL1        0.0932
     26 O           3.2492    2.4430   -1.0254 O.2     1  UNL1       -0.4618
     27 C           2.6471    1.2851   -0.6266 C.ar    1  UNL1        0.1498
     28 H           5.8235    1.6572   -0.1021 H       1  UNL1        0.0356
     29 H           5.6545    1.1629   -1.8173 H       1  UNL1        0.0356
     30 H           7.9972    0.2744   -0.8554 H       1  UNL1        0.0575
     31 H           7.2907   -2.1214   -0.0965 H       1  UNL1        0.0615
     32 H           4.6883   -2.2398    0.1933 H       1  UNL1        0.0621
     33 H          -4.6175    1.8927   -0.6110 H       1  UNL1        0.0625
     34 H          -7.0414    2.0143   -1.0883 H       1  UNL1        0.0633
     35 H          -8.4059   -0.0727   -0.9442 H       1  UNL1        0.0829
     36 H          -5.1332   -2.3324    0.0866 H       1  UNL1        0.0836
     37 H          -2.2934   -3.3800    3.1290 H       1  UNL1        0.1030
     38 H           0.1207   -2.3278    2.3213 H       1  UNL1        0.0655
     39 H          -0.0448    3.0907   -0.8684 H       1  UNL1        0.0655
     40 H           2.3729    4.2668   -1.4641 H       1  UNL1        0.1030
@<TRIPOS>BOND
     1     1     2    1
     2     2     3    2
     3     3     4    1
     4     4     5    2
     5     5     6    1
     6     6     7   ar
     7     7     8   ar
     8     8     9    1
     9     9    10   ar
    10    10    11   ar
    11    11    12    1
    12    12    13   ar
    13    13    14   ar
    14    14    15   ar
    15    15    16   ar
    16    16    17   ar
    17    11    18   ar
    18    18    19   ar
    19    19    20   ar
    20    20    21   ar
    21    21    22   ar
    22     8    23   ar
    23    23    24   ar
    24    24    25   ar
    25    25    26   ar
    26    26    27   ar
    27     5     1    1
    28    27     6   ar
    29    22     9   ar
    30    27    23   ar
    31    17    12   ar
    32    22    18   ar
    33     1    28    1
    34     1    29    1
    35     2    30    1
    36     3    31    1
    37     4    32    1
    38    13    33    1
    39    14    34    1
    40    15    35    1
    41    17    36    1
    42    20    37    1
    43    21    38    1
    44    24    39    1
    45    25    40    1
