@<TRIPOS>MOLECULE
*****
 46 52 0 0 0
SMALL
GASTEIGER

@<TRIPOS>ATOM
      1 C          -5.1738   -2.5805   -0.5099 C.3     1  UNL1        0.0000
      2 C          -6.4040   -3.0706    0.1966 C.2     1  UNL1        0.0000
      3 C          -6.5831   -2.3715    1.3243 C.2     1  UNL1        0.0000
      4 C          -5.5273   -1.4006    1.4579 C.2     1  UNL1        0.0000
      5 C          -4.6886   -1.4743    0.4069 C.2     1  UNL1        0.0000
      6 C          -3.5454   -0.6367    0.2781 C.ar    1  UNL1        0.0000
      7 S          -2.0948   -1.2823   -0.4321 S.2     1  UNL1        0.0000
      8 C          -1.2000    0.1855   -0.2592 C.ar    1  UNL1        0.0000
      9 C           0.1702    0.2521   -0.6773 C.ar    1  UNL1        0.0000
     10 S           1.4434    0.7995    0.3746 S.2     1  UNL1        0.0000
     11 C           2.6914    0.5580   -0.8062 C.ar    1  UNL1        0.0000
     12 C           4.0761    0.8376   -0.5697 C.ar    1  UNL1        0.0000
     13 S           5.0075    1.8018   -1.6719 S.2     1  UNL1        0.0000
     14 C           6.4488    1.6689   -0.7321 C.ar    1  UNL1        0.0000
     15 C           6.2247    0.9182    0.3888 C.ar    1  UNL1        0.0000
     16 C           7.1130    0.5401    1.4450 C.2     1  UNL1        0.0000
     17 C           6.5550   -0.2231    2.4092 C.2     1  UNL1        0.0000
     18 SI          4.7021   -0.5623    2.0444 Si      1  UNL1        0.0000
     19 C           4.8800    0.4638    0.4694 C.ar    1  UNL1        0.0000
     20 C           2.1110    0.0777   -1.9298 C.ar    1  UNL1        0.0000
     21 N           2.7174   -0.2650   -3.1065 N.ar    1  UNL1        0.0000
     22 C           1.6299   -0.6870   -3.8659 C.ar    1  UNL1        0.0000
     23 C           0.4238   -0.5958   -3.1406 C.ar    1  UNL1        0.0000
     24 C           0.7448   -0.0902   -1.8531 C.ar    1  UNL1        0.0000
     25 C          -1.9976    1.1580    0.2942 C.ar    1  UNL1        0.0000
     26 C          -1.7386    2.5406    0.5857 C.2     1  UNL1        0.0000
     27 C          -2.7798    3.2249    1.1061 C.2     1  UNL1        0.0000
     28 SI         -4.3129    2.1155    1.2919 Si      1  UNL1        0.0000
     29 C          -3.3081    0.6752    0.5886 C.ar    1  UNL1        0.0000
     30 H          -4.4381   -3.3854   -0.6000 H       1  UNL1        0.0000
     31 H          -5.4248   -2.1897   -1.5007 H       1  UNL1        0.0000
     32 H          -7.0387   -3.8677   -0.1597 H       1  UNL1        0.0000
     33 H          -7.3817   -2.5032    2.0387 H       1  UNL1        0.0000
     34 H          -5.4474   -0.7486    2.3140 H       1  UNL1        0.0000
     35 H           7.3609    2.1457   -1.0610 H       1  UNL1        0.0000
     36 H           8.1517    0.8497    1.4612 H       1  UNL1        0.0000
     37 H           7.0228   -0.6190    3.2954 H       1  UNL1        0.0000
     38 H           3.8553    0.0608    3.0902 H       1  UNL1        0.0000
     39 H           4.4823   -2.0109    1.8119 H       1  UNL1        0.0000
     40 H           3.7040   -0.2048   -3.3311 H       1  UNL1        0.0000
     41 H           1.7996   -1.0278   -4.8795 H       1  UNL1        0.0000
     42 H          -0.5545   -0.8663   -3.5162 H       1  UNL1        0.0000
     43 H          -0.7774    3.0017    0.3894 H       1  UNL1        0.0000
     44 H          -2.8045    4.2646    1.3901 H       1  UNL1        0.0000
     45 H          -5.4124    2.5783    0.4090 H       1  UNL1        0.0000
     46 H          -4.6822    1.9451    2.7201 H       1  UNL1        0.0000
@<TRIPOS>BOND
     1     1     2    1
     2     2     3    2
     3     3     4    1
     4     4     5    2
     5     5     6    1
     6     6     7   ar
     7     7     8   ar
     8     8     9    1
     9     9    10   ar
    10    10    11   ar
    11    11    12    1
    12    12    13   ar
    13    13    14   ar
    14    14    15   ar
    15    15    16    1
    16    16    17    2
    17    17    18    1
    18    18    19    1
    19    11    20   ar
    20    20    21   ar
    21    21    22   ar
    22    22    23   ar
    23    23    24   ar
    24     8    25   ar
    25    25    26    1
    26    26    27    2
    27    27    28    1
    28    28    29    1
    29     5     1    1
    30    29     6   ar
    31    24     9   ar
    32    29    25   ar
    33    19    12   ar
    34    24    20   ar
    35    19    15   ar
    36     1    30    1
    37     1    31    1
    38     2    32    1
    39     3    33    1
    40     4    34    1
    41    14    35    1
    42    16    36    1
    43    17    37    1
    44    18    38    1
    45    18    39    1
    46    21    40    1
    47    22    41    1
    48    23    42    1
    49    26    43    1
    50    27    44    1
    51    28    45    1
    52    28    46    1
