@<TRIPOS>MOLECULE
*****
 29 33 0 0 0
SMALL
GASTEIGER

@<TRIPOS>ATOM
      1 C           3.6819   -2.0379    0.1241 C.ar    1  UNL1       -0.0445
      2 C           4.6580   -1.1034    0.4479 C.ar    1  UNL1       -0.0425
      3 C           4.2792    0.2097    0.6528 C.ar    1  UNL1        0.0283
      4 N           3.0214    0.6803    0.5659 N.ar    1  UNL1       -0.2538
      5 C           2.0608   -0.2359    0.2479 C.ar    1  UNL1        0.0864
      6 C           2.3578   -1.5824    0.0247 C.ar    1  UNL1        0.0388
      7 S           0.9530   -2.5008   -0.3571 S.2     1  UNL1       -0.0845
      8 C          -0.1042   -1.1321   -0.2382 C.ar    1  UNL1        0.0485
      9 C           0.6722   -0.0271    0.0907 C.ar    1  UNL1        0.0264
     10 C          -0.0261    1.2164    0.2362 C.ar    1  UNL1        0.0104
     11 C           0.4398    2.4587    0.5478 C.ar    1  UNL1        0.0101
     12 N          -0.6726    3.2724    0.5494 N.ar    1  UNL1       -0.3659
     13 C          -1.8045    2.5351    0.2422 C.ar    1  UNL1        0.0101
     14 C          -1.4149    1.2285    0.0402 C.ar    1  UNL1        0.0093
     15 C          -2.2502    0.1441   -0.2931 C.ar    1  UNL1        0.0106
     16 C          -3.6445    0.1276   -0.4956 C.ar    1  UNL1       -0.0505
     17 C          -4.2580   -1.0767   -0.8207 C.ar    1  UNL1       -0.0430
     18 C          -3.4695   -2.2143   -0.9325 C.ar    1  UNL1        0.0283
     19 N          -2.1290   -2.2404   -0.7461 N.ar    1  UNL1       -0.2538
     20 C          -1.5256   -1.0673   -0.4285 C.ar    1  UNL1        0.0859
     21 H           3.9320   -3.0800   -0.0457 H       1  UNL1        0.0630
     22 H           5.6981   -1.3975    0.5385 H       1  UNL1        0.0633
     23 H           5.0247    0.9596    0.9072 H       1  UNL1        0.0830
     24 H           1.4259    2.8468    0.7653 H       1  UNL1        0.0813
     25 H          -0.6624    4.2648    0.7466 H       1  UNL1        0.1648
     26 H          -2.7689    3.0224    0.2005 H       1  UNL1        0.0813
     27 H          -4.2324    1.0343   -0.4007 H       1  UNL1        0.0625
     28 H          -5.3286   -1.1312   -0.9845 H       1  UNL1        0.0633
     29 H          -3.9135   -3.1737   -1.1852 H       1  UNL1        0.0830
@<TRIPOS>BOND
     1     1     2   ar
     2     2     3   ar
     3     3     4   ar
     4     4     5   ar
     5     5     6   ar
     6     6     7   ar
     7     7     8   ar
     8     8     9   ar
     9     9    10   ar
    10    10    11   ar
    11    11    12   ar
    12    12    13   ar
    13    13    14   ar
    14    14    15   ar
    15    15    16   ar
    16    16    17   ar
    17    17    18   ar
    18    18    19   ar
    19    19    20   ar
    20     1     6   ar
    21    20     8   ar
    22     5     9   ar
    23    14    10   ar
    24    20    15   ar
    25     1    21    1
    26     2    22    1
    27     3    23    1
    28    11    24    1
    29    12    25    1
    30    13    26    1
    31    16    27    1
    32    17    28    1
    33    18    29    1
