@<TRIPOS>MOLECULE
*****
 35 40 0 0 0
SMALL
GASTEIGER

@<TRIPOS>ATOM
      1 C          -4.1825   -1.5043   -0.0581 C.ar    1  UNL1       -0.0505
      2 C          -3.9718   -2.8711   -0.0078 C.ar    1  UNL1       -0.0430
      3 C          -2.6672   -3.3162    0.0039 C.ar    1  UNL1        0.0283
      4 N          -1.5842   -2.5038   -0.0305 N.ar    1  UNL1       -0.2543
      5 C          -1.7409   -1.1609   -0.0802 C.ar    1  UNL1        0.0793
      6 C          -3.0683   -0.6330   -0.0949 C.ar    1  UNL1        0.0092
      7 C          -3.1174    0.7853   -0.1478 C.ar    1  UNL1       -0.0011
      8 C          -4.2823    1.5189   -0.1708 C.ar    1  UNL1       -0.0160
      9 S          -3.9748    3.2055   -0.2350 S.2     1  UNL1       -0.1038
     10 C          -2.2763    2.9611   -0.2323 C.ar    1  UNL1       -0.0160
     11 C          -1.9478    1.6248   -0.1836 C.ar    1  UNL1       -0.0025
     12 C          -0.6181    1.1274   -0.1700 C.ar    1  UNL1       -0.0070
     13 C           0.5665    1.9204   -0.2041 C.ar    1  UNL1       -0.0456
     14 C           1.8373    1.3393   -0.1872 C.ar    1  UNL1       -0.0166
     15 C           3.0313    2.1632   -0.2225 C.ar    1  UNL1       -0.0533
     16 C           4.3643    1.6811   -0.2095 C.ar    1  UNL1       -0.0504
     17 C           4.3688    0.2971   -0.1578 C.ar    1  UNL1        0.0205
     18 C           5.4651   -0.5222   -0.1313 C.ar    1  UNL1        0.0994
     19 O           5.0563   -1.8276   -0.0809 O.2     1  UNL1       -0.4698
     20 C           3.6867   -1.8310   -0.0756 C.ar    1  UNL1        0.1000
     21 C           3.2203   -0.5424   -0.1220 C.ar    1  UNL1        0.0276
     22 C           1.8831   -0.0867   -0.1340 C.ar    1  UNL1       -0.0065
     23 C           0.7084   -0.8798   -0.0999 C.ar    1  UNL1       -0.0436
     24 C          -0.5762   -0.3089   -0.1164 C.ar    1  UNL1        0.0093
     25 H          -5.1988   -1.1248   -0.0685 H       1  UNL1        0.0625
     26 H          -4.7995   -3.5699    0.0215 H       1  UNL1        0.0633
     27 H          -2.4404   -4.3783    0.0428 H       1  UNL1        0.0830
     28 H          -5.3078    1.1791   -0.1542 H       1  UNL1        0.0700
     29 H          -1.6301    3.8262   -0.2671 H       1  UNL1        0.0700
     30 H           0.4866    3.0036   -0.2443 H       1  UNL1        0.0630
     31 H           2.9032    3.2472   -0.2626 H       1  UNL1        0.0624
     32 H           5.2334    2.3221   -0.2368 H       1  UNL1        0.0625
     33 H           6.5348   -0.3697   -0.1410 H       1  UNL1        0.1035
     34 H           3.2271   -2.8083   -0.0373 H       1  UNL1        0.1036
     35 H           0.8111   -1.9633   -0.0598 H       1  UNL1        0.0631
@<TRIPOS>BOND
     1     1     2   ar
     2     2     3   ar
     3     3     4   ar
     4     4     5   ar
     5     5     6   ar
     6     6     7   ar
     7     7     8   ar
     8     8     9   ar
     9     9    10   ar
    10    10    11   ar
    11    11    12   ar
    12    12    13   ar
    13    13    14   ar
    14    14    15   ar
    15    15    16   ar
    16    16    17   ar
    17    17    18   ar
    18    18    19   ar
    19    19    20   ar
    20    20    21   ar
    21    21    22   ar
    22    22    23   ar
    23    23    24   ar
    24     1     6   ar
    25    11     7   ar
    26    24    12   ar
    27    24     5   ar
    28    22    14   ar
    29    21    17   ar
    30     1    25    1
    31     2    26    1
    32     3    27    1
    33     8    28    1
    34    10    29    1
    35    13    30    1
    36    15    31    1
    37    16    32    1
    38    18    33    1
    39    20    34    1
    40    23    35    1
