@<TRIPOS>MOLECULE
*****
 36 41 0 0 0
SMALL
GASTEIGER

@<TRIPOS>ATOM
      1 C           4.1369    1.8060   -0.7394 C.ar    1  UNL1       -0.0497
      2 C           5.1884    0.9594   -0.4290 C.ar    1  UNL1       -0.0430
      3 C           4.8734   -0.2917    0.0524 C.ar    1  UNL1        0.0283
      4 N           3.6073   -0.7286    0.2346 N.ar    1  UNL1       -0.2542
      5 C           2.5594    0.0855   -0.0636 C.ar    1  UNL1        0.0822
      6 C           2.8134    1.3700   -0.5570 C.ar    1  UNL1        0.0191
      7 C           1.7317    2.1819   -0.8539 C.ar    1  UNL1        0.0375
      8 N           0.4401    1.8255   -0.7022 N.ar    1  UNL1       -0.2536
      9 C           0.1249    0.6036   -0.2320 C.ar    1  UNL1        0.0820
     10 C           1.1932   -0.2917    0.0969 C.ar    1  UNL1        0.0360
     11 C           0.7007   -1.5379    0.5786 C.ar    1  UNL1        0.0112
     12 C           1.4385   -2.6263    0.9852 C.ar    1  UNL1        0.0101
     13 N           0.5635   -3.6126    1.3723 N.ar    1  UNL1       -0.3659
     14 C          -0.7307   -3.1751    1.2209 C.ar    1  UNL1        0.0100
     15 C          -0.6759   -1.8907    0.7299 C.ar    1  UNL1        0.0079
     16 C          -1.7747   -1.0650    0.4280 C.ar    1  UNL1       -0.0060
     17 C          -3.1712   -1.4541    0.5934 C.ar    1  UNL1       -0.0527
     18 C          -4.2568   -0.6173    0.2871 C.ar    1  UNL1       -0.0520
     19 C          -3.8025    0.6027   -0.1841 C.ar    1  UNL1        0.0001
     20 C          -4.6216    1.6339   -0.5679 C.ar    1  UNL1        0.0094
     21 N          -3.8028    2.6626   -0.9705 N.ar    1  UNL1       -0.3659
     22 C          -2.4815    2.2940   -0.8458 C.ar    1  UNL1        0.0101
     23 C          -2.4372    1.0084   -0.3555 C.ar    1  UNL1        0.0092
     24 C          -1.2817    0.2193   -0.0682 C.ar    1  UNL1        0.0179
     25 H           4.3474    2.8016   -1.1221 H       1  UNL1        0.0625
     26 H           6.2196    1.2657   -0.5583 H       1  UNL1        0.0633
     27 H           5.6493   -1.0049    0.3153 H       1  UNL1        0.0830
     28 H           1.8705    3.1887   -1.2399 H       1  UNL1        0.0836
     29 H           2.5046   -2.8006    1.0389 H       1  UNL1        0.0813
     30 H           0.8351   -4.5242    1.7170 H       1  UNL1        0.1648
     31 H          -1.5551   -3.8248    1.4789 H       1  UNL1        0.0813
     32 H          -3.3962   -2.4484    0.9757 H       1  UNL1        0.0624
     33 H          -5.2901   -0.9059    0.4098 H       1  UNL1        0.0624
     34 H          -5.6974    1.7390   -0.5950 H       1  UNL1        0.0813
     35 H          -4.1203    3.5609   -1.3096 H       1  UNL1        0.1648
     36 H          -1.7023    2.9908   -1.1212 H       1  UNL1        0.0813
@<TRIPOS>BOND
     1     1     2   ar
     2     2     3   ar
     3     3     4   ar
     4     4     5   ar
     5     5     6   ar
     6     6     7   ar
     7     7     8   ar
     8     8     9   ar
     9     9    10   ar
    10    10    11   ar
    11    11    12   ar
    12    12    13   ar
    13    13    14   ar
    14    14    15   ar
    15    15    16   ar
    16    16    17   ar
    17    17    18   ar
    18    18    19   ar
    19    19    20   ar
    20    20    21   ar
    21    21    22   ar
    22    22    23   ar
    23    23    24   ar
    24     1     6   ar
    25    24     9   ar
    26     5    10   ar
    27    15    11   ar
    28    24    16   ar
    29    23    19   ar
    30     1    25    1
    31     2    26    1
    32     3    27    1
    33     7    28    1
    34    12    29    1
    35    13    30    1
    36    14    31    1
    37    17    32    1
    38    18    33    1
    39    20    34    1
    40    21    35    1
    41    22    36    1
