@<TRIPOS>MOLECULE
*****
 31 35 0 0 0
SMALL
GASTEIGER

@<TRIPOS>ATOM
      1 C          -3.1550    1.3002   -0.5422 C.ar    1  UNL1       -0.0504
      2 C          -3.2948    2.6789   -0.7148 C.ar    1  UNL1       -0.0430
      3 C          -2.1572    3.4613   -0.7092 C.ar    1  UNL1        0.0284
      4 N          -0.9184    2.9643   -0.5458 N.ar    1  UNL1       -0.2512
      5 C          -0.8128    1.6181   -0.3800 C.ar    1  UNL1        0.1143
      6 C           0.4843    1.1202   -0.2116 C.ar    1  UNL1        0.1627
      7 O           1.6190    1.8787   -0.2034 O.2     1  UNL1       -0.4525
      8 C           2.6676    1.0435   -0.0169 C.ar    1  UNL1        0.1393
      9 C           3.9919    1.4455    0.0490 C.ar    1  UNL1       -0.0006
     10 C           4.8784    0.4055    0.2456 C.ar    1  UNL1        0.0311
     11 N           4.5265   -0.8946    0.3672 N.ar    1  UNL1       -0.2624
     12 C           3.2142   -1.2426    0.2961 C.ar    1  UNL1        0.0389
     13 C           2.2302   -0.2690    0.0989 C.ar    1  UNL1        0.0466
     14 C           0.7950   -0.2257   -0.0283 C.ar    1  UNL1        0.0392
     15 C          -0.2875   -1.1598   -0.0115 C.ar    1  UNL1       -0.0058
     16 C          -0.0404   -2.5396    0.1703 C.ar    1  UNL1       -0.0533
     17 C          -1.0832   -3.4630    0.1892 C.ar    1  UNL1       -0.0611
     18 C          -2.3888   -3.0287    0.0275 C.ar    1  UNL1       -0.0611
     19 C          -2.6544   -1.6691   -0.1536 C.ar    1  UNL1       -0.0534
     20 C          -1.6276   -0.6944   -0.1798 C.ar    1  UNL1       -0.0079
     21 C          -1.8829    0.7050   -0.3646 C.ar    1  UNL1        0.0117
     22 H          -4.0601    0.7005   -0.5494 H       1  UNL1        0.0625
     23 H          -4.2728    3.1277   -0.8503 H       1  UNL1        0.0633
     24 H          -2.2128    4.5381   -0.8394 H       1  UNL1        0.0830
     25 H           4.2936    2.4780   -0.0457 H       1  UNL1        0.0670
     26 H           5.9464    0.5973    0.3141 H       1  UNL1        0.0831
     27 H           3.0143   -2.3006    0.4024 H       1  UNL1        0.0837
     28 H           0.9639   -2.9238    0.3005 H       1  UNL1        0.0624
     29 H          -0.8730   -4.5203    0.3303 H       1  UNL1        0.0618
     30 H          -3.2069   -3.7446    0.0413 H       1  UNL1        0.0618
     31 H          -3.6968   -1.3868   -0.2752 H       1  UNL1        0.0624
@<TRIPOS>BOND
     1     1     2   ar
     2     2     3   ar
     3     3     4   ar
     4     4     5   ar
     5     5     6   ar
     6     6     7   ar
     7     7     8   ar
     8     8     9   ar
     9     9    10   ar
    10    10    11   ar
    11    11    12   ar
    12    12    13   ar
    13    13    14   ar
    14    14    15   ar
    15    15    16   ar
    16    16    17   ar
    17    17    18   ar
    18    18    19   ar
    19    19    20   ar
    20    20    21   ar
    21     1    21   ar
    22    21     5   ar
    23    14     6   ar
    24    20    15   ar
    25    13     8   ar
    26     1    22    1
    27     2    23    1
    28     3    24    1
    29     9    25    1
    30    10    26    1
    31    12    27    1
    32    16    28    1
    33    17    29    1
    34    18    30    1
    35    19    31    1
