@<TRIPOS>MOLECULE
*****
 46 50 0 0 0
SMALL
GASTEIGER

@<TRIPOS>ATOM
      1 C           8.3049   -0.3786   -0.6861 C.ar    1  UNL1        0.0457
      2 C           7.6235    0.8140   -0.5307 C.ar    1  UNL1        0.0464
      3 N           6.2761    0.8736   -0.4165 N.ar    1  UNL1       -0.2520
      4 C           5.6090   -0.3124   -0.4557 C.ar    1  UNL1        0.0890
      5 C           4.1395   -0.2441   -0.3260 C.ar    1  UNL1        0.0019
      6 C           3.4351    0.8983   -0.7444 C.ar    1  UNL1       -0.0519
      7 C           2.0407    0.9838   -0.6364 C.ar    1  UNL1       -0.0534
      8 C           1.2917   -0.0711   -0.1000 C.ar    1  UNL1       -0.0178
      9 C          -0.1724    0.0162    0.0165 C.ar    1  UNL1       -0.0173
     10 C          -0.7835    1.0877    0.6801 C.ar    1  UNL1       -0.0491
     11 C          -2.1817    1.1693    0.8102 C.ar    1  UNL1       -0.0255
     12 C          -3.0136    0.1850    0.2447 C.ar    1  UNL1        0.0361
     13 C          -2.4039   -0.8847   -0.4370 C.ar    1  UNL1       -0.0255
     14 C          -1.0030   -0.9695   -0.5316 C.ar    1  UNL1       -0.0491
     15 C          -3.2457   -1.9739   -1.0514 C.3     1  UNL1       -0.0245
     16 C          -4.6508   -1.4741   -1.3551 C.3     1  UNL1       -0.0332
     17 C          -5.2409   -0.8220   -0.1146 C.3     1  UNL1        0.0125
     18 N          -4.3948    0.2668    0.3560 N.pl3   1  UNL1       -0.3294
     19 C          -5.0206    1.4458    0.9404 C.3     1  UNL1        0.0125
     20 C          -4.1696    2.0132    2.0656 C.3     1  UNL1       -0.0332
     21 C          -2.7806    2.3449    1.5394 C.3     1  UNL1       -0.0245
     22 C           1.9864   -1.2103    0.3283 C.ar    1  UNL1       -0.0534
     23 C           3.3821   -1.2944    0.2203 C.ar    1  UNL1       -0.0519
     24 C           6.3175   -1.5036   -0.6229 C.ar    1  UNL1        0.0535
     25 N           7.6698   -1.5677   -0.7381 N.ar    1  UNL1       -0.2596
     26 H           9.3846   -0.4089   -0.7753 H       1  UNL1        0.0845
     27 H           8.1447    1.7637   -0.4927 H       1  UNL1        0.0845
     28 H           3.9766    1.7430   -1.1691 H       1  UNL1        0.0624
     29 H           1.5429    1.8858   -0.9873 H       1  UNL1        0.0624
     30 H          -0.1645    1.8655    1.1241 H       1  UNL1        0.0627
     31 H          -0.5587   -1.8100   -1.0618 H       1  UNL1        0.0627
     32 H          -3.2876   -2.8193   -0.3539 H       1  UNL1        0.0314
     33 H          -2.7874   -2.3290   -1.9819 H       1  UNL1        0.0314
     34 H          -4.6179   -0.7451   -2.1754 H       1  UNL1        0.0283
     35 H          -5.2826   -2.3063   -1.6844 H       1  UNL1        0.0283
     36 H          -6.2433   -0.4486   -0.3557 H       1  UNL1        0.0464
     37 H          -5.3571   -1.5612    0.6875 H       1  UNL1        0.0464
     38 H          -5.1723    2.1994    0.1580 H       1  UNL1        0.0464
     39 H          -6.0100    1.1931    1.3400 H       1  UNL1        0.0464
     40 H          -4.6384    2.9119    2.4811 H       1  UNL1        0.0283
     41 H          -4.0946    1.2789    2.8784 H       1  UNL1        0.0283
     42 H          -2.8311    3.1958    0.8492 H       1  UNL1        0.0314
     43 H          -2.1423    2.6343    2.3825 H       1  UNL1        0.0314
     44 H           1.4429   -2.0430    0.7719 H       1  UNL1        0.0624
     45 H           3.8640   -2.1942    0.5962 H       1  UNL1        0.0624
     46 H           5.8167   -2.4633   -0.6862 H       1  UNL1        0.0851
@<TRIPOS>BOND
     1     1     2   ar
     2     2     3   ar
     3     3     4   ar
     4     4     5    1
     5     5     6   ar
     6     6     7   ar
     7     7     8   ar
     8     8     9    1
     9     9    10   ar
    10    10    11   ar
    11    11    12   ar
    12    12    13   ar
    13    13    14   ar
    14    13    15    1
    15    15    16    1
    16    16    17    1
    17    17    18    1
    18    18    19    1
    19    19    20    1
    20    20    21    1
    21     8    22   ar
    22    22    23   ar
    23     4    24   ar
    24    24    25   ar
    25    25     1   ar
    26    23     5   ar
    27    14     9   ar
    28    21    11    1
    29    18    12    1
    30     1    26    1
    31     2    27    1
    32     6    28    1
    33     7    29    1
    34    10    30    1
    35    14    31    1
    36    15    32    1
    37    15    33    1
    38    16    34    1
    39    16    35    1
    40    17    36    1
    41    17    37    1
    42    19    38    1
    43    19    39    1
    44    20    40    1
    45    20    41    1
    46    21    42    1
    47    21    43    1
    48    22    44    1
    49    23    45    1
    50    24    46    1
