@<TRIPOS>MOLECULE
*****
 37 41 0 0 0
SMALL
GASTEIGER

@<TRIPOS>ATOM
      1 C          -7.5917   -0.5332   -0.3884 C.ar    1  UNL1        0.0457
      2 C          -6.8897    0.6511   -0.4933 C.ar    1  UNL1        0.0464
      3 N          -5.5407    0.7086   -0.3954 N.ar    1  UNL1       -0.2520
      4 C          -4.8842   -0.4672   -0.1851 C.ar    1  UNL1        0.0890
      5 C          -3.4056   -0.3822   -0.0808 C.ar    1  UNL1        0.0019
      6 C          -2.5823   -1.4994    0.1346 C.ar    1  UNL1       -0.0519
      7 C          -1.1846   -1.3823    0.2283 C.ar    1  UNL1       -0.0520
      8 C          -0.5434   -0.1439    0.1112 C.ar    1  UNL1       -0.0016
      9 C           0.9226   -0.0467    0.2130 C.ar    1  UNL1        0.0475
     10 C           1.8830   -1.0284    0.4207 C.ar    1  UNL1       -0.0287
     11 C           3.1705   -0.4262    0.4403 C.ar    1  UNL1        0.0010
     12 C           4.4802   -0.9098    0.6082 C.ar    1  UNL1       -0.0418
     13 C           5.5705   -0.0295    0.5747 C.ar    1  UNL1        0.0208
     14 C           6.9801   -0.1401    0.7000 C.ar    1  UNL1       -0.0161
     15 C           7.4835    1.1346    0.5673 C.ar    1  UNL1        0.0931
     16 O           6.4795    2.0292    0.3679 O.2     1  UNL1       -0.4629
     17 C           5.3181    1.3208    0.3726 C.ar    1  UNL1        0.1368
     18 C           4.0413    1.8334    0.2034 C.ar    1  UNL1        0.0051
     19 C           2.9752    0.9368    0.2410 C.ar    1  UNL1        0.0505
     20 N           1.6230    1.1392    0.1077 N.ar    1  UNL1       -0.3540
     21 C          -1.3516    0.9764   -0.1034 C.ar    1  UNL1       -0.0520
     22 C          -2.7476    0.8563   -0.1965 C.ar    1  UNL1       -0.0519
     23 C          -5.6200   -1.6498   -0.0831 C.ar    1  UNL1        0.0535
     24 N          -6.9753   -1.7136   -0.1807 N.ar    1  UNL1       -0.2596
     25 H          -8.6719   -0.5641   -0.4688 H       1  UNL1        0.0845
     26 H          -7.3937    1.5960   -0.6604 H       1  UNL1        0.0845
     27 H          -2.9963   -2.4986    0.2371 H       1  UNL1        0.0624
     28 H          -0.6097   -2.2897    0.3959 H       1  UNL1        0.0624
     29 H           1.6894   -2.0849    0.5482 H       1  UNL1        0.0645
     30 H           4.6459   -1.9720    0.7646 H       1  UNL1        0.0631
     31 H           7.5573   -1.0380    0.8665 H       1  UNL1        0.0655
     32 H           8.4804    1.5519    0.5891 H       1  UNL1        0.1029
     33 H           3.8906    2.8959    0.0481 H       1  UNL1        0.0675
     34 H           1.2088    2.0456   -0.0471 H       1  UNL1        0.1659
     35 H          -0.9316    1.9719   -0.2050 H       1  UNL1        0.0624
     36 H          -3.3275    1.7640   -0.3646 H       1  UNL1        0.0624
     37 H          -5.1523   -2.6123    0.0835 H       1  UNL1        0.0851
@<TRIPOS>BOND
     1     1     2   ar
     2     2     3   ar
     3     3     4   ar
     4     4     5    1
     5     5     6   ar
     6     6     7   ar
     7     7     8   ar
     8     8     9    1
     9     9    10   ar
    10    10    11   ar
    11    11    12   ar
    12    12    13   ar
    13    13    14   ar
    14    14    15   ar
    15    15    16   ar
    16    16    17   ar
    17    17    18   ar
    18    18    19   ar
    19    19    20   ar
    20     8    21   ar
    21    21    22   ar
    22     4    23   ar
    23    23    24   ar
    24    24     1   ar
    25    22     5   ar
    26    20     9   ar
    27    19    11   ar
    28    17    13   ar
    29     1    25    1
    30     2    26    1
    31     6    27    1
    32     7    28    1
    33    10    29    1
    34    12    30    1
    35    14    31    1
    36    15    32    1
    37    18    33    1
    38    20    34    1
    39    21    35    1
    40    22    36    1
    41    23    37    1
