@<TRIPOS>MOLECULE
*****
 36 40 0 0 0
SMALL
GASTEIGER

@<TRIPOS>ATOM
      1 C           7.5214   -0.1880   -0.3930 C.ar    1  UNL1        0.0457
      2 C           6.8247   -1.0340    0.4467 C.ar    1  UNL1        0.0464
      3 N           5.4739   -1.0222    0.5342 N.ar    1  UNL1       -0.2520
      4 C           4.8098   -0.1281   -0.2513 C.ar    1  UNL1        0.0890
      5 C           3.3290   -0.1317   -0.1400 C.ar    1  UNL1        0.0019
      6 C           2.4989    0.7276   -0.8809 C.ar    1  UNL1       -0.0518
      7 C           1.1004    0.6979   -0.7512 C.ar    1  UNL1       -0.0505
      8 C           0.4700   -0.1922    0.1248 C.ar    1  UNL1        0.0173
      9 C          -0.9844   -0.2266    0.2628 C.ar    1  UNL1        0.1362
     10 C          -1.8658   -0.9741    1.0241 C.ar    1  UNL1       -0.0080
     11 C          -3.1745   -0.5286    0.7040 C.ar    1  UNL1        0.0243
     12 C          -4.4784   -0.8518    1.1004 C.ar    1  UNL1       -0.0080
     13 C          -5.5358   -0.1539    0.5266 C.ar    1  UNL1        0.1356
     14 O          -6.8571   -0.3379    0.7944 O.2     1  UNL1       -0.4629
     15 C          -7.5417    0.5454    0.0206 C.ar    1  UNL1        0.0931
     16 C          -6.6766    1.2965   -0.7429 C.ar    1  UNL1       -0.0160
     17 C          -5.3684    0.8501   -0.4219 C.ar    1  UNL1        0.0236
     18 C          -4.0639    1.1723   -0.8174 C.ar    1  UNL1       -0.0080
     19 C          -3.0073    0.4737   -0.2429 C.ar    1  UNL1        0.1365
     20 O          -1.6880    0.6577   -0.5106 O.2     1  UNL1       -0.4548
     21 C           1.2810   -1.0531    0.8686 C.ar    1  UNL1       -0.0505
     22 C           2.6776   -1.0210    0.7368 C.ar    1  UNL1       -0.0518
     23 C           5.5404    0.7153   -1.0911 C.ar    1  UNL1        0.0535
     24 N           6.8976    0.7080   -1.1832 N.ar    1  UNL1       -0.2596
     25 H           8.6032   -0.2085   -0.4528 H       1  UNL1        0.0845
     26 H           7.3346   -1.7517    1.0789 H       1  UNL1        0.0845
     27 H           2.9086    1.4484   -1.5830 H       1  UNL1        0.0624
     28 H           0.5088    1.3874   -1.3512 H       1  UNL1        0.0625
     29 H          -1.6015   -1.7496    1.7282 H       1  UNL1        0.0661
     30 H          -4.6691   -1.6258    1.8362 H       1  UNL1        0.0661
     31 H          -8.6175    0.5180    0.1245 H       1  UNL1        0.1029
     32 H          -6.9551    2.0701   -1.4441 H       1  UNL1        0.0655
     33 H          -3.8729    1.9462   -1.5531 H       1  UNL1        0.0661
     34 H           0.8481   -1.7664    1.5653 H       1  UNL1        0.0625
     35 H           3.2634   -1.7142    1.3406 H       1  UNL1        0.0624
     36 H           5.0667    1.4446   -1.7367 H       1  UNL1        0.0851
@<TRIPOS>BOND
     1     1     2   ar
     2     2     3   ar
     3     3     4   ar
     4     4     5    1
     5     5     6   ar
     6     6     7   ar
     7     7     8   ar
     8     8     9    1
     9     9    10   ar
    10    10    11   ar
    11    11    12   ar
    12    12    13   ar
    13    13    14   ar
    14    14    15   ar
    15    15    16   ar
    16    16    17   ar
    17    17    18   ar
    18    18    19   ar
    19    19    20   ar
    20     8    21   ar
    21    21    22   ar
    22     4    23   ar
    23    23    24   ar
    24    24     1   ar
    25    22     5   ar
    26    20     9   ar
    27    19    11   ar
    28    17    13   ar
    29     1    25    1
    30     2    26    1
    31     6    27    1
    32     7    28    1
    33    10    29    1
    34    12    30    1
    35    15    31    1
    36    16    32    1
    37    18    33    1
    38    21    34    1
    39    22    35    1
    40    23    36    1
