@<TRIPOS>MOLECULE
*****
 39 45 0 0 0
SMALL
GASTEIGER

@<TRIPOS>ATOM
      1 SI         -4.8417   -1.8531   -2.1267 Si      1  UNL1        0.0000
      2 C          -5.3494   -0.6712   -0.7742 C.2     1  UNL1        0.0000
      3 C          -4.2730   -0.1283   -0.1734 C.ar    1  UNL1        0.0000
      4 C          -4.2838    0.8075    0.9145 C.ar    1  UNL1        0.0000
      5 C          -5.3171    1.4310    1.6422 C.ar    1  UNL1        0.0000
      6 C          -4.6835    2.2346    2.5678 C.ar    1  UNL1        0.0000
      7 O          -3.3284    2.1430    2.4526 O.2     1  UNL1        0.0000
      8 C          -3.0853    1.2674    1.4396 C.ar    1  UNL1        0.0000
      9 C          -1.8252    0.8383    0.9176 C.ar    1  UNL1        0.0000
     10 O          -0.5843    1.2068    1.3321 O.2     1  UNL1        0.0000
     11 C           0.3042    0.5554    0.5266 C.ar    1  UNL1        0.0000
     12 C           1.6846    0.6622    0.6226 C.ar    1  UNL1        0.0000
     13 C           2.3990   -0.0822   -0.3094 C.ar    1  UNL1        0.0000
     14 N           1.7864   -0.8419   -1.2618 N.ar    1  UNL1        0.0000
     15 C           0.4314   -0.9342   -1.3191 C.ar    1  UNL1        0.0000
     16 C          -0.3570   -0.2299   -0.4132 C.ar    1  UNL1        0.0000
     17 C          -1.7376   -0.0557   -0.1447 C.ar    1  UNL1        0.0000
     18 C          -2.9457   -0.5834   -0.7266 C.ar    1  UNL1        0.0000
     19 C          -3.0495   -1.4748   -1.7333 C.2     1  UNL1        0.0000
     20 C           3.8655   -0.0845   -0.3844 C.ar    1  UNL1        0.0000
     21 C           4.5612   -0.1638   -1.6231 C.ar    1  UNL1        0.0000
     22 C           5.9700   -0.1777   -1.7552 C.ar    1  UNL1        0.0000
     23 C           6.8354   -0.1236   -0.6550 C.ar    1  UNL1        0.0000
     24 C           6.2202   -0.0574    0.6163 C.ar    1  UNL1        0.0000
     25 N           6.8744   -0.0072    1.7871 N.ar    1  UNL1        0.0000
     26 S           5.7170    0.0565    2.9715 S.2     1  UNL1        0.0000
     27 N           4.3356    0.0211    2.0567 N.ar    1  UNL1        0.0000
     28 C           4.7109   -0.0357    0.7655 C.ar    1  UNL1        0.0000
     29 H          -5.1968   -3.2559   -1.8088 H       1  UNL1        0.0000
     30 H          -5.2291   -1.3754   -3.4726 H       1  UNL1        0.0000
     31 H          -6.3873   -0.4930   -0.5410 H       1  UNL1        0.0000
     32 H          -6.3848    1.3216    1.5197 H       1  UNL1        0.0000
     33 H          -5.0356    2.9038    3.3421 H       1  UNL1        0.0000
     34 H           2.1457    1.2916    1.3695 H       1  UNL1        0.0000
     35 H           0.0334   -1.5668   -2.1020 H       1  UNL1        0.0000
     36 H          -2.2600   -1.9547   -2.2867 H       1  UNL1        0.0000
     37 H           3.9698   -0.2151   -2.5411 H       1  UNL1        0.0000
     38 H           6.3973   -0.2377   -2.7569 H       1  UNL1        0.0000
     39 H           7.9130   -0.1377   -0.7637 H       1  UNL1        0.0000
@<TRIPOS>BOND
     1     1     2    1
     2     2     3    2
     3     3     4   ar
     4     4     5   ar
     5     5     6   ar
     6     6     7   ar
     7     7     8   ar
     8     8     9   ar
     9     9    10   ar
    10    10    11   ar
    11    11    12   ar
    12    12    13   ar
    13    13    14   ar
    14    14    15   ar
    15    15    16   ar
    16    16    17   ar
    17    17    18   ar
    18    18    19    2
    19    13    20    1
    20    20    21   ar
    21    21    22   ar
    22    22    23   ar
    23    23    24   ar
    24    24    25   ar
    25    25    26   ar
    26    26    27   ar
    27    27    28   ar
    28    19     1    1
    29    28    20   ar
    30    18     3   ar
    31    28    24   ar
    32     8     4   ar
    33    17     9   ar
    34    16    11   ar
    35     1    29    1
    36     1    30    1
    37     2    31    1
    38     5    32    1
    39     6    33    1
    40    12    34    1
    41    15    35    1
    42    19    36    1
    43    21    37    1
    44    22    38    1
    45    23    39    1
