@<TRIPOS>MOLECULE
*****
 35 39 0 0 0
SMALL
GASTEIGER

@<TRIPOS>ATOM
      1 C          -7.3383    0.3075    0.1902 C.ar    1  UNL1        0.0457
      2 C          -6.6350   -0.1969   -0.8855 C.ar    1  UNL1        0.0464
      3 N          -5.2824   -0.2480   -0.9108 N.ar    1  UNL1       -0.2520
      4 C          -4.6235    0.2249    0.1841 C.ar    1  UNL1        0.0890
      5 C          -3.1409    0.1593    0.1353 C.ar    1  UNL1        0.0019
      6 C          -2.4825   -0.3665   -0.9910 C.ar    1  UNL1       -0.0519
      7 C          -1.0835   -0.4438   -1.0714 C.ar    1  UNL1       -0.0520
      8 C          -0.2713    0.0029   -0.0249 C.ar    1  UNL1       -0.0016
      9 C           1.1950   -0.0856   -0.1256 C.ar    1  UNL1        0.0501
     10 C           2.0044   -0.5712   -1.1527 C.ar    1  UNL1       -0.0087
     11 C           3.3545   -0.4363   -0.7642 C.ar    1  UNL1        0.1089
     12 N           4.5135   -0.7560   -1.3992 N.ar    1  UNL1       -0.2387
     13 C           5.6446   -0.4736   -0.6972 C.ar    1  UNL1        0.1293
     14 C           7.0096   -0.6511   -1.0026 C.ar    1  UNL1        0.0039
     15 C           7.7049   -0.1799    0.0909 C.ar    1  UNL1        0.0966
     16 O           6.8548    0.2777    1.0529 O.2     1  UNL1       -0.4439
     17 C           5.5933    0.0993    0.5734 C.ar    1  UNL1        0.2478
     18 N           4.4573    0.4253    1.2243 N.ar    1  UNL1       -0.1914
     19 C           3.3585    0.1323    0.5005 C.ar    1  UNL1        0.1609
     20 N           2.0617    0.3368    0.8704 N.ar    1  UNL1       -0.3377
     21 C          -0.9111    0.5288    1.1029 C.ar    1  UNL1       -0.0520
     22 C          -2.3137    0.6048    1.1801 C.ar    1  UNL1       -0.0519
     23 C          -5.3608    0.7292    1.2575 C.ar    1  UNL1        0.0535
     24 N          -6.7196    0.7834    1.2890 N.ar    1  UNL1       -0.2596
     25 H          -8.4214    0.3424    0.1968 H       1  UNL1        0.0845
     26 H          -7.1404   -0.5777   -1.7655 H       1  UNL1        0.0845
     27 H          -3.0625   -0.7307   -1.8391 H       1  UNL1        0.0624
     28 H          -0.6522   -0.8635   -1.9766 H       1  UNL1        0.0624
     29 H           1.6672   -0.9841   -2.0930 H       1  UNL1        0.0661
     30 H           7.4301   -1.0690   -1.9046 H       1  UNL1        0.0671
     31 H           8.7568   -0.1031    0.3305 H       1  UNL1        0.1031
     32 H           1.8024    0.7425    1.7558 H       1  UNL1        0.1674
     33 H          -0.3464    0.8953    1.9550 H       1  UNL1        0.0624
     34 H          -2.7312    1.0265    2.0906 H       1  UNL1        0.0624
     35 H          -4.8919    1.1181    2.1529 H       1  UNL1        0.0851
@<TRIPOS>BOND
     1     1     2   ar
     2     2     3   ar
     3     3     4   ar
     4     4     5    1
     5     5     6   ar
     6     6     7   ar
     7     7     8   ar
     8     8     9    1
     9     9    10   ar
    10    10    11   ar
    11    11    12   ar
    12    12    13   ar
    13    13    14   ar
    14    14    15   ar
    15    15    16   ar
    16    16    17   ar
    17    17    18   ar
    18    18    19   ar
    19    19    20   ar
    20     8    21   ar
    21    21    22   ar
    22     4    23   ar
    23    23    24   ar
    24    24     1   ar
    25    22     5   ar
    26    20     9   ar
    27    19    11   ar
    28    17    13   ar
    29     1    25    1
    30     2    26    1
    31     6    27    1
    32     7    28    1
    33    10    29    1
    34    14    30    1
    35    15    31    1
    36    20    32    1
    37    21    33    1
    38    22    34    1
    39    23    35    1
