@<TRIPOS>MOLECULE
*****
 32 35 0 0 0
SMALL
GASTEIGER

@<TRIPOS>ATOM
      1 C          -6.3595    0.0519    0.4495 C.ar    1  UNL1        0.0457
      2 C          -5.5282    0.8608    1.2016 C.ar    1  UNL1        0.0464
      3 N          -4.1812    0.8429    1.0704 N.ar    1  UNL1       -0.2520
      4 C          -3.6699   -0.0253    0.1553 C.ar    1  UNL1        0.0890
      5 C          -2.1993   -0.0451    0.0194 C.ar    1  UNL1        0.0019
      6 C          -1.4963   -1.1886   -0.3967 C.ar    1  UNL1       -0.0519
      7 C          -0.0994   -1.1830   -0.5235 C.ar    1  UNL1       -0.0534
      8 C           0.6518   -0.0357   -0.2343 C.ar    1  UNL1       -0.0178
      9 C           2.1186   -0.0316   -0.3659 C.ar    1  UNL1       -0.0157
     10 C           2.7328   -0.4118   -1.5765 C.ar    1  UNL1       -0.0519
     11 C           4.1254   -0.4214   -1.7458 C.ar    1  UNL1       -0.0342
     12 C           4.8814   -0.0313   -0.6427 C.ar    1  UNL1        0.0858
     13 N           6.2237    0.0889   -0.4180 N.ar    1  UNL1       -0.2571
     14 N           6.4885    0.5092    0.8296 N.ar    1  UNL1       -0.0673
     15 N           5.3255    0.6740    1.4483 N.ar    1  UNL1       -0.1297
     16 C           4.3261    0.3512    0.5692 C.ar    1  UNL1        0.1130
     17 C           2.9322    0.3547    0.7190 C.ar    1  UNL1       -0.0247
     18 C          -0.0408    1.1047    0.1913 C.ar    1  UNL1       -0.0534
     19 C          -1.4363    1.0976    0.3167 C.ar    1  UNL1       -0.0519
     20 C          -4.5293   -0.8255   -0.5995 C.ar    1  UNL1        0.0535
     21 N          -5.8819   -0.8103   -0.4717 N.ar    1  UNL1       -0.2596
     22 H          -7.4365    0.0779    0.5674 H       1  UNL1        0.0845
     23 H          -5.9237    1.5516    1.9374 H       1  UNL1        0.0845
     24 H          -2.0188   -2.1188   -0.6090 H       1  UNL1        0.0624
     25 H           0.4012   -2.0985   -0.8340 H       1  UNL1        0.0624
     26 H           2.1108   -0.6992   -2.4245 H       1  UNL1        0.0624
     27 H           4.5778   -0.7134   -2.6870 H       1  UNL1        0.0639
     28 H           6.9969   -0.0917   -1.0457 H       1  UNL1        0.1907
     29 H           2.5016    0.6450    1.6722 H       1  UNL1        0.0646
     30 H           0.4988    2.0208    0.4246 H       1  UNL1        0.0624
     31 H          -1.9329    2.0081    0.6513 H       1  UNL1        0.0624
     32 H          -4.1593   -1.5082   -1.3563 H       1  UNL1        0.0851
@<TRIPOS>BOND
     1     1     2   ar
     2     2     3   ar
     3     3     4   ar
     4     4     5    1
     5     5     6   ar
     6     6     7   ar
     7     7     8   ar
     8     8     9    1
     9     9    10   ar
    10    10    11   ar
    11    11    12   ar
    12    12    13   ar
    13    13    14   ar
    14    14    15   ar
    15    15    16   ar
    16    16    17   ar
    17     8    18   ar
    18    18    19   ar
    19     4    20   ar
    20    20    21   ar
    21    21     1   ar
    22    19     5   ar
    23    17     9   ar
    24    16    12   ar
    25     1    22    1
    26     2    23    1
    27     6    24    1
    28     7    25    1
    29    10    26    1
    30    11    27    1
    31    13    28    1
    32    17    29    1
    33    18    30    1
    34    19    31    1
    35    20    32    1
