@<TRIPOS>MOLECULE
*****
 27 29 0 0 0
SMALL
GASTEIGER

@<TRIPOS>ATOM
      1 C          -5.3222   -0.3106   -0.1154 C.ar    1  UNL1        0.0457
      2 C          -4.5466   -1.1254    0.6881 C.ar    1  UNL1        0.0464
      3 N          -3.1965   -1.0362    0.7285 N.ar    1  UNL1       -0.2520
      4 C          -2.6252   -0.0888   -0.0646 C.ar    1  UNL1        0.0890
      5 C          -1.1524    0.0087   -0.0127 C.ar    1  UNL1        0.0019
      6 C          -0.3703   -1.1151    0.3081 C.ar    1  UNL1       -0.0519
      7 C           1.0288   -1.0504    0.3576 C.ar    1  UNL1       -0.0533
      8 C           1.6972    0.1483    0.0919 C.ar    1  UNL1       -0.0149
      9 C           3.1469    0.2349    0.1434 C.ar    1  UNL1        0.0193
     10 C           4.0006    1.3317    0.4115 C.ar    1  UNL1        0.0568
     11 N           5.2955    1.0100    0.3479 N.ar    1  UNL1       -0.1817
     12 N           5.2782   -0.2958    0.0388 N.ar    1  UNL1       -0.2841
     13 C           4.0194   -0.8063   -0.0970 C.ar    1  UNL1        0.0300
     14 C           0.9332    1.2790   -0.2158 C.ar    1  UNL1       -0.0533
     15 C          -0.4672    1.2096   -0.2663 C.ar    1  UNL1       -0.0519
     16 C          -3.4277    0.7162   -0.8749 C.ar    1  UNL1        0.0535
     17 N          -4.7828    0.6293   -0.9189 N.ar    1  UNL1       -0.2596
     18 H          -6.4025   -0.3943   -0.1355 H       1  UNL1        0.0845
     19 H          -4.9913   -1.8789    1.3280 H       1  UNL1        0.0845
     20 H          -0.8549   -2.0664    0.5266 H       1  UNL1        0.0624
     21 H           1.5784   -1.9501    0.6225 H       1  UNL1        0.0624
     22 H           3.7317    2.3514    0.6551 H       1  UNL1        0.0854
     23 H           6.1654   -0.7763   -0.0687 H       1  UNL1        0.1882
     24 H           3.8678   -1.8435   -0.3585 H       1  UNL1        0.0830
     25 H           1.4121    2.2322   -0.4283 H       1  UNL1        0.0624
     26 H          -1.0101    2.1250   -0.4918 H       1  UNL1        0.0624
     27 H          -3.0054    1.4617   -1.5396 H       1  UNL1        0.0851
@<TRIPOS>BOND
     1     1     2   ar
     2     2     3   ar
     3     3     4   ar
     4     4     5    1
     5     5     6   ar
     6     6     7   ar
     7     7     8   ar
     8     8     9    1
     9     9    10   ar
    10    10    11   ar
    11    11    12   ar
    12    12    13   ar
    13     8    14   ar
    14    14    15   ar
    15     4    16   ar
    16    16    17   ar
    17    17     1   ar
    18    15     5   ar
    19    13     9   ar
    20     1    18    1
    21     2    19    1
    22     6    20    1
    23     7    21    1
    24    10    22    1
    25    12    23    1
    26    13    24    1
    27    14    25    1
    28    15    26    1
    29    16    27    1
