@<TRIPOS>MOLECULE
*****
 38 42 0 0 0
SMALL
GASTEIGER

@<TRIPOS>ATOM
      1 C           4.4391    4.3071    3.3682 C.ar    1  UNL1        0.0457
      2 C           3.0614    4.3609    3.2665 C.ar    1  UNL1        0.0464
      3 N           2.3339    3.3722    2.6954 N.ar    1  UNL1       -0.2520
      4 C           3.0305    2.3065    2.2139 C.ar    1  UNL1        0.0890
      5 C           2.2333    1.2332    1.5881 C.ar    1  UNL1        0.0019
      6 C           0.9145    0.9841    2.0077 C.ar    1  UNL1       -0.0519
      7 C           0.1386   -0.0280    1.4298 C.ar    1  UNL1       -0.0533
      8 C           0.6515   -0.8272    0.4011 C.ar    1  UNL1       -0.0144
      9 C          -0.1595   -1.8725   -0.2152 C.ar    1  UNL1        0.0241
     10 C           0.1484   -3.2314   -0.1449 C.ar    1  UNL1        0.0373
     11 N          -0.5723   -4.2345   -0.7001 N.ar    1  UNL1       -0.2619
     12 C          -1.6961   -3.9242   -1.3894 C.ar    1  UNL1        0.0374
     13 C          -2.1017   -2.5910   -1.5321 C.ar    1  UNL1        0.0275
     14 C          -1.3246   -1.5913   -0.9437 C.ar    1  UNL1        0.0583
     15 N          -1.9238   -0.3879   -1.2468 N.ar    1  UNL1       -0.3535
     16 C          -3.0638   -0.5785   -1.9886 C.ar    1  UNL1        0.0504
     17 C          -3.9750    0.3417   -2.5020 C.ar    1  UNL1       -0.0196
     18 C          -5.0249   -0.2123   -3.2183 C.ar    1  UNL1        0.0295
     19 N          -5.2025   -1.5339   -3.4355 N.ar    1  UNL1       -0.2625
     20 C          -4.3004   -2.4090   -2.9261 C.ar    1  UNL1        0.0373
     21 C          -3.2028   -1.9518   -2.1851 C.ar    1  UNL1        0.0269
     22 C           1.9631   -0.5874   -0.0266 C.ar    1  UNL1       -0.0533
     23 C           2.7383    0.4263    0.5539 C.ar    1  UNL1       -0.0519
     24 C           4.4205    2.2691    2.3353 C.ar    1  UNL1        0.0535
     25 N           5.1534    3.2598    2.9064 N.ar    1  UNL1       -0.2596
     26 H           5.0071    5.1078    3.8278 H       1  UNL1        0.0845
     27 H           2.4985    5.2069    3.6437 H       1  UNL1        0.0845
     28 H           0.4792    1.5839    2.8068 H       1  UNL1        0.0624
     29 H          -0.8716   -0.1919    1.8020 H       1  UNL1        0.0624
     30 H           1.0299   -3.5673    0.3979 H       1  UNL1        0.0836
     31 H          -2.2430   -4.7580   -1.8150 H       1  UNL1        0.0836
     32 H          -1.5648    0.5126   -0.9605 H       1  UNL1        0.1659
     33 H          -3.8789    1.4099   -2.3585 H       1  UNL1        0.0653
     34 H          -5.7874    0.4263   -3.6578 H       1  UNL1        0.0830
     35 H          -4.4844   -3.4581   -3.1274 H       1  UNL1        0.0836
     36 H           2.3918   -1.1800   -0.8338 H       1  UNL1        0.0624
     37 H           3.7410    0.5845    0.1619 H       1  UNL1        0.0624
     38 H           5.0035    1.4238    1.9865 H       1  UNL1        0.0851
@<TRIPOS>BOND
     1     1     2   ar
     2     2     3   ar
     3     3     4   ar
     4     4     5    1
     5     5     6   ar
     6     6     7   ar
     7     7     8   ar
     8     8     9    1
     9     9    10   ar
    10    10    11   ar
    11    11    12   ar
    12    12    13   ar
    13    13    14   ar
    14    14    15   ar
    15    15    16   ar
    16    16    17   ar
    17    17    18   ar
    18    18    19   ar
    19    19    20   ar
    20    20    21   ar
    21     8    22   ar
    22    22    23   ar
    23     4    24   ar
    24    24    25   ar
    25    25     1   ar
    26    23     5   ar
    27    14     9   ar
    28    21    16   ar
    29    21    13   ar
    30     1    26    1
    31     2    27    1
    32     6    28    1
    33     7    29    1
    34    10    30    1
    35    12    31    1
    36    15    32    1
    37    17    33    1
    38    18    34    1
    39    20    35    1
    40    22    36    1
    41    23    37    1
    42    24    38    1
