@<TRIPOS>MOLECULE
*****
 34 38 0 0 0
SMALL
GASTEIGER

@<TRIPOS>ATOM
      1 C          -7.2399    0.2192   -0.2586 C.ar    1  UNL1        0.0457
      2 C          -6.5432   -0.8516    0.2650 C.ar    1  UNL1        0.0464
      3 N          -5.1905   -0.8945    0.2952 N.ar    1  UNL1       -0.2520
      4 C          -4.5245    0.1771   -0.2193 C.ar    1  UNL1        0.0890
      5 C          -3.0414    0.1087   -0.1758 C.ar    1  UNL1        0.0019
      6 C          -2.3915   -1.0148    0.3730 C.ar    1  UNL1       -0.0518
      7 C          -0.9941   -1.1134    0.4305 C.ar    1  UNL1       -0.0489
      8 C          -0.1824   -0.0876   -0.0609 C.ar    1  UNL1        0.0370
      9 C           1.2712   -0.2140    0.0105 C.ar    1  UNL1        0.2284
     10 N           1.9962   -1.2081    0.4971 N.ar    1  UNL1       -0.2088
     11 C           3.2889   -0.7974    0.3072 C.ar    1  UNL1        0.1135
     12 C           4.5104   -1.4045    0.6098 C.ar    1  UNL1        0.0120
     13 C           5.6674   -0.7111    0.2820 C.ar    1  UNL1        0.1573
     14 O           6.9621   -1.0927    0.4758 O.2     1  UNL1       -0.4424
     15 C           7.6804   -0.0467   -0.0259 C.ar    1  UNL1        0.1831
     16 N           6.9717    0.9498   -0.5136 N.ar    1  UNL1       -0.2160
     17 C           5.6777    0.5392   -0.3237 C.ar    1  UNL1        0.1129
     18 C           4.4558    1.1454   -0.6259 C.ar    1  UNL1        0.0120
     19 C           3.2992    0.4513   -0.2977 C.ar    1  UNL1        0.1580
     20 O           2.0065    0.8338   -0.4919 O.2     1  UNL1       -0.4352
     21 C          -0.8079    1.0367   -0.6098 C.ar    1  UNL1       -0.0489
     22 C          -2.2085    1.1317   -0.6656 C.ar    1  UNL1       -0.0518
     23 C          -5.2552    1.2461   -0.7423 C.ar    1  UNL1        0.0535
     24 N          -6.6142    1.2952   -0.7755 N.ar    1  UNL1       -0.2596
     25 H          -8.3233    0.2401   -0.2763 H       1  UNL1        0.0845
     26 H          -7.0543   -1.7132    0.6789 H       1  UNL1        0.0845
     27 H          -2.9782   -1.8432    0.7702 H       1  UNL1        0.0624
     28 H          -0.5461   -2.0057    0.8658 H       1  UNL1        0.0625
     29 H           4.5501   -2.3788    1.0821 H       1  UNL1        0.0677
     30 H           8.7568   -0.1354    0.0246 H       1  UNL1        0.1255
     31 H           4.4159    2.1197   -1.0982 H       1  UNL1        0.0677
     32 H          -0.2144    1.8596   -1.0044 H       1  UNL1        0.0625
     33 H          -2.6202    2.0357   -1.1064 H       1  UNL1        0.0624
     34 H          -4.7805    2.1235   -1.1640 H       1  UNL1        0.0851
@<TRIPOS>BOND
     1     1     2   ar
     2     2     3   ar
     3     3     4   ar
     4     4     5    1
     5     5     6   ar
     6     6     7   ar
     7     7     8   ar
     8     8     9    1
     9     9    10   ar
    10    10    11   ar
    11    11    12   ar
    12    12    13   ar
    13    13    14   ar
    14    14    15   ar
    15    15    16   ar
    16    16    17   ar
    17    17    18   ar
    18    18    19   ar
    19    19    20   ar
    20     8    21   ar
    21    21    22   ar
    22     4    23   ar
    23    23    24   ar
    24    24     1   ar
    25    22     5   ar
    26    20     9   ar
    27    19    11   ar
    28    17    13   ar
    29     1    25    1
    30     2    26    1
    31     6    27    1
    32     7    28    1
    33    12    29    1
    34    15    30    1
    35    18    31    1
    36    21    32    1
    37    22    33    1
    38    23    34    1
