@<TRIPOS>MOLECULE
*****
 34 38 0 0 0
SMALL
GASTEIGER

@<TRIPOS>ATOM
      1 C          -7.3133   -0.7406   -0.3460 C.ar    1  UNL1        0.0457
      2 C          -6.7213    0.4918   -0.1537 C.ar    1  UNL1        0.0464
      3 N          -5.3785    0.6524   -0.0930 N.ar    1  UNL1       -0.2520
      4 C          -4.6137   -0.4671   -0.2311 C.ar    1  UNL1        0.0890
      5 C          -3.1439   -0.2683   -0.1614 C.ar    1  UNL1        0.0019
      6 C          -2.6018    1.0163    0.0370 C.ar    1  UNL1       -0.0519
      7 C          -1.2180    1.2457    0.1086 C.ar    1  UNL1       -0.0514
      8 C          -0.3055    0.1927   -0.0159 C.ar    1  UNL1        0.0072
      9 C           1.1622    0.3600    0.0493 C.ar    1  UNL1        0.1094
     10 N           2.0161   -0.6402   -0.0694 N.ar    1  UNL1       -0.2390
     11 C           3.3188   -0.1894    0.0315 C.ar    1  UNL1        0.0801
     12 C           4.4748   -0.9762   -0.0482 C.ar    1  UNL1       -0.0194
     13 C           5.7350   -0.3907    0.0708 C.ar    1  UNL1        0.0410
     14 S           7.2957   -1.1149    0.0114 S.2     1  UNL1       -0.0753
     15 C           8.0065    0.4242    0.2508 C.ar    1  UNL1        0.0659
     16 N           7.1794    1.4376    0.3721 N.ar    1  UNL1       -0.2474
     17 C           5.8756    0.9832    0.2706 C.ar    1  UNL1        0.0793
     18 C           4.7180    1.7679    0.3500 C.ar    1  UNL1       -0.0194
     19 C           3.4587    1.1805    0.2308 C.ar    1  UNL1        0.0416
     20 S           1.9015    1.8985    0.2894 S.2     1  UNL1       -0.0671
     21 C          -0.8335   -1.0913   -0.2138 C.ar    1  UNL1       -0.0514
     22 C          -2.2181   -1.3175   -0.2849 C.ar    1  UNL1       -0.0519
     23 C          -5.2396   -1.7005   -0.4245 C.ar    1  UNL1        0.0535
     24 N          -6.5881   -1.8679   -0.4863 N.ar    1  UNL1       -0.2596
     25 H          -8.3900   -0.8544   -0.3925 H       1  UNL1        0.0845
     26 H          -7.3123    1.3934   -0.0418 H       1  UNL1        0.0845
     27 H          -3.2663    1.8745    0.1406 H       1  UNL1        0.0624
     28 H          -0.8884    2.2698    0.2639 H       1  UNL1        0.0624
     29 H           4.3742   -2.0466   -0.2036 H       1  UNL1        0.0651
     30 H           9.0806    0.5485    0.2987 H       1  UNL1        0.0907
     31 H           4.8176    2.8385    0.5054 H       1  UNL1        0.0651
     32 H          -0.1612   -1.9432   -0.3163 H       1  UNL1        0.0624
     33 H          -2.5381   -2.3442   -0.4403 H       1  UNL1        0.0624
     34 H          -4.6832   -2.6225   -0.5402 H       1  UNL1        0.0851
@<TRIPOS>BOND
     1     1     2   ar
     2     2     3   ar
     3     3     4   ar
     4     4     5    1
     5     5     6   ar
     6     6     7   ar
     7     7     8   ar
     8     8     9    1
     9     9    10   ar
    10    10    11   ar
    11    11    12   ar
    12    12    13   ar
    13    13    14   ar
    14    14    15   ar
    15    15    16   ar
    16    16    17   ar
    17    17    18   ar
    18    18    19   ar
    19    19    20   ar
    20     8    21   ar
    21    21    22   ar
    22     4    23   ar
    23    23    24   ar
    24    24     1   ar
    25    22     5   ar
    26    20     9   ar
    27    19    11   ar
    28    17    13   ar
    29     1    25    1
    30     2    26    1
    31     6    27    1
    32     7    28    1
    33    12    29    1
    34    15    30    1
    35    18    31    1
    36    21    32    1
    37    22    33    1
    38    23    34    1
