@<TRIPOS>MOLECULE
*****
 34 38 0 0 0
SMALL
GASTEIGER

@<TRIPOS>ATOM
      1 C          -7.1146    0.1195    1.3976 C.ar    1  UNL1        0.0457
      2 C          -6.4103   -1.0335    1.1136 C.ar    1  UNL1        0.0464
      3 N          -5.0817   -1.0284    0.8542 N.ar    1  UNL1       -0.2520
      4 C          -4.4481    0.1770    0.8830 C.ar    1  UNL1        0.0890
      5 C          -2.9910    0.1585    0.5955 C.ar    1  UNL1        0.0019
      6 C          -2.1916    1.3163    0.5859 C.ar    1  UNL1       -0.0518
      7 C          -0.8131    1.2677    0.3099 C.ar    1  UNL1       -0.0505
      8 C          -0.1768    0.0538    0.0314 C.ar    1  UNL1        0.0174
      9 C           1.2588   -0.0498   -0.2627 C.ar    1  UNL1        0.1422
     10 N           1.9084   -1.1754   -0.5326 N.ar    1  UNL1       -0.2068
     11 C           3.2096   -0.8163   -0.7417 C.ar    1  UNL1        0.1998
     12 N           4.2539   -1.6237   -1.0485 N.ar    1  UNL1       -0.2020
     13 C           5.4357   -0.9774   -1.1978 C.ar    1  UNL1        0.1992
     14 N           6.6543   -1.5203   -1.5051 N.ar    1  UNL1       -0.2152
     15 C           7.4803   -0.4940   -1.5366 C.ar    1  UNL1        0.0973
     16 N           6.8468    0.6903   -1.2625 N.ar    1  UNL1       -0.3279
     17 C           5.5342    0.4030   -1.0421 C.ar    1  UNL1        0.1791
     18 N           4.5223    1.2423   -0.7376 N.ar    1  UNL1       -0.2052
     19 C           3.3690    0.5555   -0.5990 C.ar    1  UNL1        0.1795
     20 N           2.1284    1.0234   -0.2968 N.ar    1  UNL1       -0.3214
     21 C          -0.9580   -1.1054    0.0372 C.ar    1  UNL1       -0.0505
     22 C          -2.3315   -1.0524    0.3128 C.ar    1  UNL1       -0.0518
     23 C          -5.1860    1.3266    1.1731 C.ar    1  UNL1        0.0535
     24 N          -6.5208    1.3291    1.4347 N.ar    1  UNL1       -0.2596
     25 H          -8.1783    0.1008    1.6034 H       1  UNL1        0.0845
     26 H          -6.8950   -2.0026    1.0856 H       1  UNL1        0.0845
     27 H          -2.6159    2.2952    0.7931 H       1  UNL1        0.0624
     28 H          -0.2660    2.2056    0.3218 H       1  UNL1        0.0625
     29 H           8.5402   -0.5452   -1.7506 H       1  UNL1        0.1028
     30 H           7.2628    1.6085   -1.2275 H       1  UNL1        0.1683
     31 H           1.9023    1.9900   -0.1300 H       1  UNL1        0.1689
     32 H          -0.5023   -2.0726   -0.1747 H       1  UNL1        0.0625
     33 H          -2.8890   -1.9891    0.3030 H       1  UNL1        0.0624
     34 H          -4.7371    2.3113    1.2101 H       1  UNL1        0.0851
@<TRIPOS>BOND
     1     1     2   ar
     2     2     3   ar
     3     3     4   ar
     4     4     5    1
     5     5     6   ar
     6     6     7   ar
     7     7     8   ar
     8     8     9    1
     9     9    10   ar
    10    10    11   ar
    11    11    12   ar
    12    12    13   ar
    13    13    14   ar
    14    14    15   ar
    15    15    16   ar
    16    16    17   ar
    17    17    18   ar
    18    18    19   ar
    19    19    20   ar
    20     8    21   ar
    21    21    22   ar
    22     4    23   ar
    23    23    24   ar
    24    24     1   ar
    25    22     5   ar
    26    20     9   ar
    27    19    11   ar
    28    17    13   ar
    29     1    25    1
    30     2    26    1
    31     6    27    1
    32     7    28    1
    33    15    29    1
    34    16    30    1
    35    20    31    1
    36    21    32    1
    37    22    33    1
    38    23    34    1
