@<TRIPOS>MOLECULE
*****
 47 52 0 0 0
SMALL
GASTEIGER

@<TRIPOS>ATOM
      1 C           7.8288   -0.1887   -0.2779 C.ar    1  UNL1       -0.0429
      2 C           7.8103    0.9889    0.4589 C.ar    1  UNL1        0.0299
      3 N           6.7024    1.6292    0.8975 N.ar    1  UNL1       -0.2375
      4 C           5.5643    1.0027    0.5449 C.ar    1  UNL1        0.1391
      5 N           4.3118    1.4437    0.8626 N.ar    1  UNL1       -0.3390
      6 C           3.3579    0.5865    0.3632 C.ar    1  UNL1        0.0492
      7 C           1.9597    0.6410    0.4476 C.ar    1  UNL1       -0.0300
      8 C           1.2056   -0.3770   -0.1660 C.ar    1  UNL1       -0.0159
      9 C          -0.2649   -0.3557   -0.1014 C.ar    1  UNL1       -0.0172
     10 C          -0.9344   -0.3234    1.1278 C.ar    1  UNL1       -0.0491
     11 C          -2.3395   -0.3017    1.2002 C.ar    1  UNL1       -0.0255
     12 C          -3.1175   -0.3353    0.0254 C.ar    1  UNL1        0.0361
     13 C          -2.4471   -0.3439   -1.2144 C.ar    1  UNL1       -0.0255
     14 C          -1.0410   -0.3671   -1.2666 C.ar    1  UNL1       -0.0491
     15 C          -3.2144   -0.3833   -2.5123 C.3     1  UNL1       -0.0245
     16 C          -4.6671    0.0278   -2.3278 C.3     1  UNL1       -0.0332
     17 C          -5.2436   -0.6909   -1.1194 C.3     1  UNL1        0.0125
     18 N          -4.5188   -0.2975    0.0872 N.pl3   1  UNL1       -0.3294
     19 C          -5.1327   -0.6524    1.3652 C.3     1  UNL1        0.0125
     20 C          -4.4528    0.1036    2.4946 C.3     1  UNL1       -0.0332
     21 C          -2.9884   -0.3019    2.5617 C.3     1  UNL1       -0.0245
     22 C           1.8767   -1.4097   -0.8386 C.ar    1  UNL1       -0.0533
     23 C           3.2766   -1.4541   -0.9143 C.ar    1  UNL1       -0.0514
     24 C           4.0346   -0.4374   -0.3029 C.ar    1  UNL1        0.0090
     25 C           5.4338   -0.1722   -0.1849 C.ar    1  UNL1        0.0264
     26 C           6.6180   -0.7952   -0.6154 C.ar    1  UNL1       -0.0490
     27 H           8.7714   -0.6283   -0.5854 H       1  UNL1        0.0633
     28 H           8.7453    1.4743    0.7301 H       1  UNL1        0.0830
     29 H           4.1340    2.2833    1.3911 H       1  UNL1        0.1673
     30 H           1.4673    1.4598    0.9655 H       1  UNL1        0.0644
     31 H          -0.3568   -0.3268    2.0508 H       1  UNL1        0.0627
     32 H          -0.5474   -0.3817   -2.2370 H       1  UNL1        0.0627
     33 H          -2.7467    0.2807   -3.2488 H       1  UNL1        0.0314
     34 H          -3.1683   -1.4059   -2.9072 H       1  UNL1        0.0314
     35 H          -4.7310    1.1136   -2.1792 H       1  UNL1        0.0283
     36 H          -5.2416   -0.2121   -3.2291 H       1  UNL1        0.0283
     37 H          -6.3007   -0.4177   -1.0191 H       1  UNL1        0.0464
     38 H          -5.1997   -1.7795   -1.2518 H       1  UNL1        0.0464
     39 H          -5.0747   -1.7363    1.5273 H       1  UNL1        0.0464
     40 H          -6.1951   -0.3819    1.3508 H       1  UNL1        0.0464
     41 H          -4.9443   -0.1079    3.4504 H       1  UNL1        0.0283
     42 H          -4.5324    1.1842    2.3184 H       1  UNL1        0.0283
     43 H          -2.9048   -1.3121    2.9816 H       1  UNL1        0.0314
     44 H          -2.4589    0.3841    3.2333 H       1  UNL1        0.0314
     45 H           1.3062   -2.2093   -1.3084 H       1  UNL1        0.0624
     46 H           3.7667   -2.2687   -1.4390 H       1  UNL1        0.0624
     47 H           6.5932   -1.7149   -1.1896 H       1  UNL1        0.0625
@<TRIPOS>BOND
     1     1     2   ar
     2     2     3   ar
     3     3     4   ar
     4     4     5   ar
     5     5     6   ar
     6     6     7   ar
     7     7     8   ar
     8     8     9    1
     9     9    10   ar
    10    10    11   ar
    11    11    12   ar
    12    12    13   ar
    13    13    14   ar
    14    13    15    1
    15    15    16    1
    16    16    17    1
    17    17    18    1
    18    18    19    1
    19    19    20    1
    20    20    21    1
    21     8    22   ar
    22    22    23   ar
    23    23    24   ar
    24    24    25   ar
    25    25    26   ar
    26    26     1   ar
    27    25     4   ar
    28    24     6   ar
    29    14     9   ar
    30    21    11    1
    31    18    12    1
    32     1    27    1
    33     2    28    1
    34     5    29    1
    35     7    30    1
    36    10    31    1
    37    14    32    1
    38    15    33    1
    39    15    34    1
    40    16    35    1
    41    16    36    1
    42    17    37    1
    43    17    38    1
    44    19    39    1
    45    19    40    1
    46    20    41    1
    47    20    42    1
    48    21    43    1
    49    21    44    1
    50    22    45    1
    51    23    46    1
    52    26    47    1
