@<TRIPOS>MOLECULE
*****
 38 43 0 0 0
SMALL
GASTEIGER

@<TRIPOS>ATOM
      1 C          -7.1060    0.0929   -0.1928 C.ar    1  UNL1       -0.0429
      2 C          -7.0507    1.1740    0.6780 C.ar    1  UNL1        0.0299
      3 N          -5.9224    1.7336    1.1722 N.ar    1  UNL1       -0.2375
      4 C          -4.8044    1.1284    0.7303 C.ar    1  UNL1        0.1391
      5 N          -3.5381    1.5008    1.0796 N.ar    1  UNL1       -0.3390
      6 C          -2.6097    0.6905    0.4654 C.ar    1  UNL1        0.0492
      7 C          -1.2064    0.7060    0.5334 C.ar    1  UNL1       -0.0286
      8 C          -0.4808   -0.2483   -0.2044 C.ar    1  UNL1        0.0003
      9 C           0.9945   -0.2852   -0.1756 C.ar    1  UNL1        0.0475
     10 C           1.8921   -1.1288   -0.8179 C.ar    1  UNL1       -0.0287
     11 C           3.2183   -0.7570   -0.4666 C.ar    1  UNL1        0.0010
     12 C           4.4965   -1.2377   -0.8022 C.ar    1  UNL1       -0.0418
     13 C           5.6434   -0.6323   -0.2704 C.ar    1  UNL1        0.0208
     14 C           7.0456   -0.8283   -0.3723 C.ar    1  UNL1       -0.0161
     15 C           7.6312    0.1317    0.4222 C.ar    1  UNL1        0.0931
     16 O           6.6852    0.9108    1.0107 O.2     1  UNL1       -0.4629
     17 C           5.4783    0.4456    0.5892 C.ar    1  UNL1        0.1368
     18 C           4.2349    0.9464    0.9422 C.ar    1  UNL1        0.0051
     19 C           3.1111    0.3263    0.3995 C.ar    1  UNL1        0.0505
     20 N           1.7722    0.5896    0.5581 N.ar    1  UNL1       -0.3540
     21 C          -1.1897   -1.1784   -0.9797 C.ar    1  UNL1       -0.0519
     22 C          -2.5923   -1.1844   -1.0400 C.ar    1  UNL1       -0.0513
     23 C          -3.3194   -0.2324   -0.3041 C.ar    1  UNL1        0.0090
     24 C          -4.7104    0.0463   -0.1353 C.ar    1  UNL1        0.0264
     25 C          -5.9141   -0.4955   -0.6183 C.ar    1  UNL1       -0.0490
     26 H          -8.0625   -0.2867   -0.5356 H       1  UNL1        0.0633
     27 H          -7.9707    1.6439    1.0190 H       1  UNL1        0.0830
     28 H          -3.3377    2.2668    1.7029 H       1  UNL1        0.1673
     29 H          -0.7166    1.4496    1.1502 H       1  UNL1        0.0645
     30 H           1.6310   -1.9421   -1.4817 H       1  UNL1        0.0645
     31 H           4.5933   -2.0830   -1.4776 H       1  UNL1        0.0631
     32 H           7.5646   -1.5768   -0.9532 H       1  UNL1        0.0655
     33 H           8.6549    0.3814    0.6634 H       1  UNL1        0.1029
     34 H           4.1529    1.7908    1.6175 H       1  UNL1        0.0675
     35 H           1.4178    1.3321    1.1406 H       1  UNL1        0.1659
     36 H          -0.6616   -1.9293   -1.5620 H       1  UNL1        0.0624
     37 H          -3.1060   -1.9203   -1.6516 H       1  UNL1        0.0624
     38 H          -5.9183   -1.3410   -1.2976 H       1  UNL1        0.0625
@<TRIPOS>BOND
     1     1     2   ar
     2     2     3   ar
     3     3     4   ar
     4     4     5   ar
     5     5     6   ar
     6     6     7   ar
     7     7     8   ar
     8     8     9    1
     9     9    10   ar
    10    10    11   ar
    11    11    12   ar
    12    12    13   ar
    13    13    14   ar
    14    14    15   ar
    15    15    16   ar
    16    16    17   ar
    17    17    18   ar
    18    18    19   ar
    19    19    20   ar
    20     8    21   ar
    21    21    22   ar
    22    22    23   ar
    23    23    24   ar
    24    24    25   ar
    25    25     1   ar
    26    24     4   ar
    27    23     6   ar
    28    20     9   ar
    29    19    11   ar
    30    17    13   ar
    31     1    26    1
    32     2    27    1
    33     5    28    1
    34     7    29    1
    35    10    30    1
    36    12    31    1
    37    14    32    1
    38    15    33    1
    39    18    34    1
    40    20    35    1
    41    21    36    1
    42    22    37    1
    43    25    38    1
