@<TRIPOS>MOLECULE
*****
 37 42 0 0 0
SMALL
GASTEIGER

@<TRIPOS>ATOM
      1 C          -6.9605   -0.0767   -0.7570 C.ar    1  UNL1       -0.0429
      2 C          -7.0013    0.5091    0.5020 C.ar    1  UNL1        0.0299
      3 N          -5.9271    0.8378    1.2556 N.ar    1  UNL1       -0.2375
      4 C          -4.7592    0.5368    0.6580 C.ar    1  UNL1        0.1391
      5 N          -3.5306    0.7675    1.2074 N.ar    1  UNL1       -0.3390
      6 C          -2.5352    0.3507    0.3532 C.ar    1  UNL1        0.0493
      7 C          -1.1409    0.3913    0.5005 C.ar    1  UNL1       -0.0271
      8 C          -0.3364   -0.1081   -0.5399 C.ar    1  UNL1        0.0193
      9 C           1.1233   -0.0870   -0.4318 C.ar    1  UNL1        0.1363
     10 C           2.1604   -0.4902   -1.2549 C.ar    1  UNL1       -0.0080
     11 C           3.3711   -0.1983   -0.5746 C.ar    1  UNL1        0.0243
     12 C           4.7392   -0.3467   -0.8352 C.ar    1  UNL1       -0.0080
     13 C           5.6459    0.0828    0.1280 C.ar    1  UNL1        0.1356
     14 O           7.0020    0.0146    0.0395 O.2     1  UNL1       -0.4629
     15 C           7.4979    0.5397    1.1911 C.ar    1  UNL1        0.0931
     16 C           6.4768    0.9455    2.0207 C.ar    1  UNL1       -0.0160
     17 C           5.2670    0.6530    1.3392 C.ar    1  UNL1        0.0236
     18 C           3.8984    0.8008    1.5984 C.ar    1  UNL1       -0.0080
     19 C           2.9927    0.3710    0.6344 C.ar    1  UNL1        0.1365
     20 O           1.6387    0.4392    0.7231 O.2     1  UNL1       -0.4548
     21 C          -0.9531   -0.6286   -1.6866 C.ar    1  UNL1       -0.0504
     22 C          -2.3499   -0.6637   -1.8221 C.ar    1  UNL1       -0.0513
     23 C          -3.1592   -0.1651   -0.7839 C.ar    1  UNL1        0.0090
     24 C          -4.5697   -0.0463   -0.5888 C.ar    1  UNL1        0.0264
     25 C          -5.7209   -0.3671   -1.3288 C.ar    1  UNL1       -0.0490
     26 H          -7.8798   -0.3040   -1.2858 H       1  UNL1        0.0633
     27 H          -7.9593    0.7419    0.9618 H       1  UNL1        0.0830
     28 H          -3.3952    1.1862    2.1142 H       1  UNL1        0.1673
     29 H          -0.6968    0.8019    1.4031 H       1  UNL1        0.0645
     30 H           2.0617   -0.9418   -2.2312 H       1  UNL1        0.0661
     31 H           5.0929   -0.7846   -1.7626 H       1  UNL1        0.0661
     32 H           8.5761    0.5543    1.2689 H       1  UNL1        0.1029
     33 H           6.5909    1.3964    2.9960 H       1  UNL1        0.0655
     34 H           3.5444    1.2387    2.5256 H       1  UNL1        0.0661
     35 H          -0.3548   -1.0211   -2.5056 H       1  UNL1        0.0625
     36 H          -2.7990   -1.0730   -2.7223 H       1  UNL1        0.0624
     37 H          -5.6504   -0.8243   -2.3097 H       1  UNL1        0.0625
@<TRIPOS>BOND
     1     1     2   ar
     2     2     3   ar
     3     3     4   ar
     4     4     5   ar
     5     5     6   ar
     6     6     7   ar
     7     7     8   ar
     8     8     9    1
     9     9    10   ar
    10    10    11   ar
    11    11    12   ar
    12    12    13   ar
    13    13    14   ar
    14    14    15   ar
    15    15    16   ar
    16    16    17   ar
    17    17    18   ar
    18    18    19   ar
    19    19    20   ar
    20     8    21   ar
    21    21    22   ar
    22    22    23   ar
    23    23    24   ar
    24    24    25   ar
    25    25     1   ar
    26    24     4   ar
    27    23     6   ar
    28    20     9   ar
    29    19    11   ar
    30    17    13   ar
    31     1    26    1
    32     2    27    1
    33     5    28    1
    34     7    29    1
    35    10    30    1
    36    12    31    1
    37    15    32    1
    38    16    33    1
    39    18    34    1
    40    21    35    1
    41    22    36    1
    42    25    37    1
