@<TRIPOS>MOLECULE
*****
 45 52 0 0 0
SMALL
GASTEIGER

@<TRIPOS>ATOM
      1 SI         -4.9009   -1.6509    2.2068 Si      1  UNL1        0.0000
      2 C          -5.4589   -0.2375    1.1351 C.2     1  UNL1        0.0000
      3 C          -4.4412    0.2404    0.3898 C.ar    1  UNL1        0.0000
      4 C          -4.5543    1.2334   -0.6520 C.ar    1  UNL1        0.0000
      5 C          -5.6925    1.9858   -1.0593 C.ar    1  UNL1        0.0000
      6 C          -5.4007    2.8147   -2.1246 C.ar    1  UNL1        0.0000
      7 S          -3.7648    2.6790   -2.6259 S.2     1  UNL1        0.0000
      8 C          -3.4441    1.5244   -1.4258 C.ar    1  UNL1        0.0000
      9 C          -2.1800    0.9033   -1.1658 C.ar    1  UNL1        0.0000
     10 N          -1.0167    1.0901   -1.8591 N.ar    1  UNL1        0.0000
     11 C           0.0106    0.4066   -1.2403 C.ar    1  UNL1        0.0000
     12 C           1.3852    0.3264   -1.5830 C.ar    1  UNL1        0.0000
     13 C           2.2921   -0.3780   -0.7648 C.ar    1  UNL1        0.0000
     14 C           3.7062   -0.4590   -1.0407 C.ar    1  UNL1        0.0000
     15 S           4.3570   -1.3372   -2.3829 S.2     1  UNL1        0.0000
     16 C           6.0039   -0.9258   -1.9903 C.ar    1  UNL1        0.0000
     17 C           5.9776   -0.1459   -0.8903 C.ar    1  UNL1        0.0000
     18 C           6.8341    0.5600   -0.0099 C.ar    1  UNL1        0.0000
     19 C           6.0132    1.1824    0.9564 C.ar    1  UNL1        0.0000
     20 N           4.6640    0.9095    0.7375 N.ar    1  UNL1        0.0000
     21 C           4.7294    0.1143   -0.3710 C.ar    1  UNL1        0.0000
     22 C           1.6931   -0.9243    0.3751 C.ar    1  UNL1        0.0000
     23 C           2.3306   -1.6212    1.3808 C.ar    1  UNL1        0.0000
     24 N           1.3936   -1.9252    2.3479 N.ar    1  UNL1        0.0000
     25 C           0.1574   -1.4313    1.9847 C.ar    1  UNL1        0.0000
     26 C           0.3320   -0.8737    0.7530 C.ar    1  UNL1        0.0000
     27 C          -0.5768   -0.2048   -0.1304 C.ar    1  UNL1        0.0000
     28 C          -1.9652    0.0019   -0.1270 C.ar    1  UNL1        0.0000
     29 C          -3.1095   -0.4328    0.6343 C.ar    1  UNL1        0.0000
     30 C          -3.1957   -1.4789    1.4786 C.2     1  UNL1        0.0000
     31 H          -5.5506   -2.9318    1.8398 H       1  UNL1        0.0000
     32 H          -4.9352   -1.3173    3.6511 H       1  UNL1        0.0000
     33 H          -6.4926    0.0654    1.1019 H       1  UNL1        0.0000
     34 H          -6.6748    1.9282   -0.6085 H       1  UNL1        0.0000
     35 H          -6.0682    3.4935   -2.6372 H       1  UNL1        0.0000
     36 H          -0.9169    1.6764   -2.6757 H       1  UNL1        0.0000
     37 H           1.7484    0.8306   -2.4762 H       1  UNL1        0.0000
     38 H           6.8321   -1.2767   -2.5881 H       1  UNL1        0.0000
     39 H           7.9131    0.6279   -0.0501 H       1  UNL1        0.0000
     40 H           6.2897    1.8095    1.7943 H       1  UNL1        0.0000
     41 H           3.8319    1.1962    1.2410 H       1  UNL1        0.0000
     42 H           3.3619   -1.9214    1.5133 H       1  UNL1        0.0000
     43 H           1.5919   -2.4144    3.2111 H       1  UNL1        0.0000
     44 H          -0.6775   -1.5176    2.6602 H       1  UNL1        0.0000
     45 H          -2.4320   -2.1944    1.7194 H       1  UNL1        0.0000
@<TRIPOS>BOND
     1     1     2    1
     2     2     3    2
     3     3     4   ar
     4     4     5   ar
     5     5     6   ar
     6     6     7   ar
     7     7     8   ar
     8     8     9   ar
     9     9    10   ar
    10    10    11   ar
    11    11    12   ar
    12    12    13   ar
    13    13    14    1
    14    14    15   ar
    15    15    16   ar
    16    16    17   ar
    17    17    18   ar
    18    18    19   ar
    19    19    20   ar
    20    20    21   ar
    21    13    22   ar
    22    22    23   ar
    23    23    24   ar
    24    24    25   ar
    25    25    26   ar
    26    26    27   ar
    27    27    28   ar
    28    28    29   ar
    29    29    30    2
    30    30     1    1
    31    29     3   ar
    32     8     4   ar
    33    28     9   ar
    34    27    11   ar
    35    21    14   ar
    36    26    22   ar
    37    21    17   ar
    38     1    31    1
    39     1    32    1
    40     2    33    1
    41     5    34    1
    42     6    35    1
    43    10    36    1
    44    12    37    1
    45    16    38    1
    46    18    39    1
    47    19    40    1
    48    20    41    1
    49    23    42    1
    50    24    43    1
    51    25    44    1
    52    30    45    1
