@<TRIPOS>MOLECULE
*****
 36 41 0 0 0
SMALL
GASTEIGER

@<TRIPOS>ATOM
      1 C          -6.8175   -0.2806   -0.2258 C.ar    1  UNL1       -0.0429
      2 C          -6.7923   -0.5891    1.1285 C.ar    1  UNL1        0.0299
      3 N          -5.6811   -0.7075    1.8912 N.ar    1  UNL1       -0.2375
      4 C          -4.5481   -0.4917    1.1978 C.ar    1  UNL1        0.1391
      5 N          -3.2941   -0.5511    1.7346 N.ar    1  UNL1       -0.3390
      6 C          -2.3445   -0.2834    0.7740 C.ar    1  UNL1        0.0492
      7 C          -0.9438   -0.2352    0.8724 C.ar    1  UNL1       -0.0286
      8 C          -0.1937    0.0663   -0.2799 C.ar    1  UNL1        0.0004
      9 C           1.2799    0.1322   -0.2426 C.ar    1  UNL1        0.0502
     10 C           2.2014    0.4097   -1.2526 C.ar    1  UNL1       -0.0087
     11 C           3.5012    0.3504   -0.7060 C.ar    1  UNL1        0.1089
     12 N           4.7260    0.5401   -1.2655 N.ar    1  UNL1       -0.2387
     13 C           5.7726    0.3968   -0.4076 C.ar    1  UNL1        0.1293
     14 C           7.1652    0.5103   -0.5963 C.ar    1  UNL1        0.0039
     15 C           7.7342    0.2577    0.6340 C.ar    1  UNL1        0.0966
     16 O           6.7802   -0.0048    1.5712 O.2     1  UNL1       -0.4439
     17 C           5.5787    0.0796    0.9367 C.ar    1  UNL1        0.2478
     18 N           4.3751   -0.1135    1.5151 N.ar    1  UNL1       -0.1914
     19 C           3.3631    0.0362    0.6373 C.ar    1  UNL1        0.1609
     20 N           2.0310   -0.0915    0.9011 N.ar    1  UNL1       -0.3377
     21 C          -0.8750    0.3070   -1.4824 C.ar    1  UNL1       -0.0519
     22 C          -2.2753    0.2559   -1.5683 C.ar    1  UNL1       -0.0513
     23 C          -3.0276   -0.0449   -0.4194 C.ar    1  UNL1        0.0090
     24 C          -4.4242   -0.1772   -0.1493 C.ar    1  UNL1        0.0264
     25 C          -5.6110   -0.0667   -0.8943 C.ar    1  UNL1       -0.0490
     26 H          -7.7621   -0.2074   -0.7540 H       1  UNL1        0.0633
     27 H          -7.7239   -0.7587    1.6641 H       1  UNL1        0.0830
     28 H          -3.1157   -0.7638    2.7035 H       1  UNL1        0.1673
     29 H          -0.4760   -0.4306    1.8299 H       1  UNL1        0.0645
     30 H           1.9729    0.6343   -2.2849 H       1  UNL1        0.0661
     31 H           7.6851    0.7461   -1.5124 H       1  UNL1        0.0671
     32 H           8.7541    0.2271    0.9929 H       1  UNL1        0.1031
     33 H           1.6737   -0.3186    1.8155 H       1  UNL1        0.1674
     34 H          -0.3282    0.5428   -2.3922 H       1  UNL1        0.0624
     35 H          -2.7683    0.4481   -2.5169 H       1  UNL1        0.0624
     36 H          -5.5920    0.1760   -1.9511 H       1  UNL1        0.0625
@<TRIPOS>BOND
     1     1     2   ar
     2     2     3   ar
     3     3     4   ar
     4     4     5   ar
     5     5     6   ar
     6     6     7   ar
     7     7     8   ar
     8     8     9    1
     9     9    10   ar
    10    10    11   ar
    11    11    12   ar
    12    12    13   ar
    13    13    14   ar
    14    14    15   ar
    15    15    16   ar
    16    16    17   ar
    17    17    18   ar
    18    18    19   ar
    19    19    20   ar
    20     8    21   ar
    21    21    22   ar
    22    22    23   ar
    23    23    24   ar
    24    24    25   ar
    25    25     1   ar
    26    24     4   ar
    27    23     6   ar
    28    20     9   ar
    29    19    11   ar
    30    17    13   ar
    31     1    26    1
    32     2    27    1
    33     5    28    1
    34     7    29    1
    35    10    30    1
    36    14    31    1
    37    15    32    1
    38    20    33    1
    39    21    34    1
    40    22    35    1
    41    25    36    1
