@<TRIPOS>MOLECULE
*****
 33 37 0 0 0
SMALL
GASTEIGER

@<TRIPOS>ATOM
      1 C          -5.9022   -0.2541    0.0243 C.ar    1  UNL1       -0.0429
      2 C          -5.9098    1.1236    0.2026 C.ar    1  UNL1        0.0299
      3 N          -4.8160    1.9123    0.3115 N.ar    1  UNL1       -0.2375
      4 C          -3.6645    1.2204    0.2284 C.ar    1  UNL1        0.1391
      5 N          -2.4220    1.7811    0.3063 N.ar    1  UNL1       -0.3390
      6 C          -1.4488    0.8147    0.1911 C.ar    1  UNL1        0.0492
      7 C          -0.0517    0.9296    0.2159 C.ar    1  UNL1       -0.0300
      8 C           0.7246   -0.2354    0.0680 C.ar    1  UNL1       -0.0158
      9 C           2.1961   -0.1589    0.0878 C.ar    1  UNL1       -0.0156
     10 C           2.8704    0.4094    1.1875 C.ar    1  UNL1       -0.0519
     11 C           4.2688    0.5013    1.2488 C.ar    1  UNL1       -0.0342
     12 C           4.9665   -0.0039    0.1540 C.ar    1  UNL1        0.0858
     13 N           6.2946   -0.0966   -0.1528 N.ar    1  UNL1       -0.2571
     14 N           6.4950   -0.6728   -1.3492 N.ar    1  UNL1       -0.0673
     15 N           5.3024   -0.9699   -1.8514 N.ar    1  UNL1       -0.1297
     16 C           4.3502   -0.5721   -0.9510 C.ar    1  UNL1        0.1130
     17 C           2.9514   -0.6552   -0.9942 C.ar    1  UNL1       -0.0247
     18 C           0.0762   -1.4688   -0.0989 C.ar    1  UNL1       -0.0533
     19 C          -1.3226   -1.5706   -0.1202 C.ar    1  UNL1       -0.0514
     20 C          -2.1029   -0.4082    0.0273 C.ar    1  UNL1        0.0090
     21 C          -3.5078   -0.1486    0.0527 C.ar    1  UNL1        0.0264
     22 C          -4.6781   -0.9199   -0.0543 C.ar    1  UNL1       -0.0490
     23 H          -6.8350   -0.8022   -0.0529 H       1  UNL1        0.0633
     24 H          -6.8555    1.6576    0.2656 H       1  UNL1        0.0830
     25 H          -2.2644    2.7687    0.4310 H       1  UNL1        0.1673
     26 H           0.4203    1.9012    0.3336 H       1  UNL1        0.0644
     27 H           2.2925    0.7836    2.0329 H       1  UNL1        0.0624
     28 H           4.7687    0.9386    2.1059 H       1  UNL1        0.0639
     29 H           7.0985    0.2013    0.3853 H       1  UNL1        0.1907
     30 H           2.4711   -1.0913   -1.8643 H       1  UNL1        0.0646
     31 H           0.6621   -2.3805   -0.2060 H       1  UNL1        0.0624
     32 H          -1.7950   -2.5401   -0.2485 H       1  UNL1        0.0624
     33 H          -4.6332   -1.9945   -0.1935 H       1  UNL1        0.0625
@<TRIPOS>BOND
     1     1     2   ar
     2     2     3   ar
     3     3     4   ar
     4     4     5   ar
     5     5     6   ar
     6     6     7   ar
     7     7     8   ar
     8     8     9    1
     9     9    10   ar
    10    10    11   ar
    11    11    12   ar
    12    12    13   ar
    13    13    14   ar
    14    14    15   ar
    15    15    16   ar
    16    16    17   ar
    17     8    18   ar
    18    18    19   ar
    19    19    20   ar
    20    20    21   ar
    21    21    22   ar
    22    22     1   ar
    23    21     4   ar
    24    20     6   ar
    25    17     9   ar
    26    16    12   ar
    27     1    23    1
    28     2    24    1
    29     5    25    1
    30     7    26    1
    31    10    27    1
    32    11    28    1
    33    13    29    1
    34    17    30    1
    35    18    31    1
    36    19    32    1
    37    22    33    1
