@<TRIPOS>MOLECULE
*****
 28 31 0 0 0
SMALL
GASTEIGER

@<TRIPOS>ATOM
      1 C          -4.8835   -0.0218   -0.0473 C.ar    1  UNL1       -0.0429
      2 C          -4.8385    1.0309    0.8580 C.ar    1  UNL1        0.0299
      3 N          -3.7153    1.6000    1.3525 N.ar    1  UNL1       -0.2375
      4 C          -2.5909    1.0366    0.8730 C.ar    1  UNL1        0.1391
      5 N          -1.3280    1.4271    1.2146 N.ar    1  UNL1       -0.3390
      6 C          -0.3920    0.6609    0.5575 C.ar    1  UNL1        0.0492
      7 C           1.0092    0.7082    0.6024 C.ar    1  UNL1       -0.0299
      8 C           1.7321   -0.2106   -0.1775 C.ar    1  UNL1       -0.0130
      9 C           3.1858   -0.1833   -0.1535 C.ar    1  UNL1        0.0194
     10 C           4.0877    0.8862    0.0593 C.ar    1  UNL1        0.0568
     11 N           5.3665    0.5014    0.0241 N.ar    1  UNL1       -0.1817
     12 N           5.2894   -0.8180   -0.2096 N.ar    1  UNL1       -0.2841
     13 C           4.0088   -1.2772   -0.3225 C.ar    1  UNL1        0.0300
     14 C           1.0446   -1.1348   -0.9746 C.ar    1  UNL1       -0.0532
     15 C          -0.3573   -1.1681   -1.0106 C.ar    1  UNL1       -0.0514
     16 C          -1.0926   -0.2553   -0.2304 C.ar    1  UNL1        0.0090
     17 C          -2.4867   -0.0140   -0.0298 C.ar    1  UNL1        0.0264
     18 C          -3.6857   -0.5678   -0.5111 C.ar    1  UNL1       -0.0490
     19 H          -5.8367   -0.4121   -0.3873 H       1  UNL1        0.0633
     20 H          -5.7631    1.4677    1.2292 H       1  UNL1        0.0830
     21 H          -1.1331    2.1762    1.8603 H       1  UNL1        0.1673
     22 H           1.5128    1.4302    1.2380 H       1  UNL1        0.0644
     23 H           3.8646    1.9308    0.2338 H       1  UNL1        0.0854
     24 H           6.1535   -1.3457   -0.2760 H       1  UNL1        0.1882
     25 H           3.8081   -2.3243   -0.4967 H       1  UNL1        0.0830
     26 H           1.5900   -1.8409   -1.5967 H       1  UNL1        0.0624
     27 H          -0.8677   -1.8920   -1.6392 H       1  UNL1        0.0624
     28 H          -3.6821   -1.3901   -1.2181 H       1  UNL1        0.0625
@<TRIPOS>BOND
     1     1     2   ar
     2     2     3   ar
     3     3     4   ar
     4     4     5   ar
     5     5     6   ar
     6     6     7   ar
     7     7     8   ar
     8     8     9    1
     9     9    10   ar
    10    10    11   ar
    11    11    12   ar
    12    12    13   ar
    13     8    14   ar
    14    14    15   ar
    15    15    16   ar
    16    16    17   ar
    17    17    18   ar
    18    18     1   ar
    19    17     4   ar
    20    16     6   ar
    21    13     9   ar
    22     1    19    1
    23     2    20    1
    24     5    21    1
    25     7    22    1
    26    10    23    1
    27    12    24    1
    28    13    25    1
    29    14    26    1
    30    15    27    1
    31    18    28    1
