@<TRIPOS>MOLECULE
*****
 39 44 0 0 0
SMALL
GASTEIGER

@<TRIPOS>ATOM
      1 C           6.3214    1.6131   -0.4909 C.ar    1  UNL1       -0.0429
      2 C           6.0372    1.8536   -1.8293 C.ar    1  UNL1        0.0299
      3 N           4.8810    1.5430   -2.4591 N.ar    1  UNL1       -0.2375
      4 C           3.9863    0.9527   -1.6455 C.ar    1  UNL1        0.1391
      5 N           2.7461    0.5378   -2.0378 N.ar    1  UNL1       -0.3390
      6 C           2.0665   -0.0181   -0.9777 C.ar    1  UNL1        0.0492
      7 C           0.7777   -0.5647   -0.9158 C.ar    1  UNL1       -0.0299
      8 C           0.3260   -1.0795    0.3135 C.ar    1  UNL1       -0.0125
      9 C          -1.0150   -1.6459    0.4238 C.ar    1  UNL1        0.0242
     10 C          -1.2669   -3.0027    0.6247 C.ar    1  UNL1        0.0373
     11 N          -2.4923   -3.5697    0.7288 N.ar    1  UNL1       -0.2619
     12 C          -3.5871   -2.7773    0.6340 C.ar    1  UNL1        0.0374
     13 C          -3.4552   -1.3965    0.4383 C.ar    1  UNL1        0.0275
     14 C          -2.1713   -0.8577    0.3389 C.ar    1  UNL1        0.0583
     15 N          -2.3178    0.5018    0.1708 N.ar    1  UNL1       -0.3535
     16 C          -3.6452    0.8530    0.1395 C.ar    1  UNL1        0.0504
     17 C          -4.2495    2.0986   -0.0162 C.ar    1  UNL1       -0.0196
     18 C          -5.6357    2.0828    0.0048 C.ar    1  UNL1        0.0295
     19 N          -6.3956    0.9768    0.1617 N.ar    1  UNL1       -0.2625
     20 C          -5.7830   -0.2236    0.3133 C.ar    1  UNL1        0.0373
     21 C          -4.3852   -0.3172    0.3052 C.ar    1  UNL1        0.0269
     22 C           1.1722   -1.0371    1.4300 C.ar    1  UNL1       -0.0532
     23 C           2.4588   -0.4855    1.3539 C.ar    1  UNL1       -0.0514
     24 C           2.9175    0.0358    0.1287 C.ar    1  UNL1        0.0090
     25 C           4.1334    0.6540   -0.2969 C.ar    1  UNL1        0.0264
     26 C           5.3549    0.9989    0.3071 C.ar    1  UNL1       -0.0490
     27 H           7.2815    1.8987   -0.0745 H       1  UNL1        0.0633
     28 H           6.7800    2.3310   -2.4648 H       1  UNL1        0.0830
     29 H           2.4002    0.6352   -2.9797 H       1  UNL1        0.1673
     30 H           0.1464   -0.6009   -1.8002 H       1  UNL1        0.0644
     31 H          -0.4421   -3.7082    0.7045 H       1  UNL1        0.0836
     32 H          -4.5470   -3.2737    0.7214 H       1  UNL1        0.0836
     33 H          -1.5458    1.1490    0.0874 H       1  UNL1        0.1659
     34 H          -3.6881    3.0148   -0.1437 H       1  UNL1        0.0653
     35 H          -6.1974    3.0068   -0.1093 H       1  UNL1        0.0830
     36 H          -6.4341   -1.0814    0.4375 H       1  UNL1        0.0836
     37 H           0.8309   -1.4304    2.3869 H       1  UNL1        0.0624
     38 H           3.0936   -0.4625    2.2352 H       1  UNL1        0.0624
     39 H           5.5424    0.7952    1.3557 H       1  UNL1        0.0625
@<TRIPOS>BOND
     1     1     2   ar
     2     2     3   ar
     3     3     4   ar
     4     4     5   ar
     5     5     6   ar
     6     6     7   ar
     7     7     8   ar
     8     8     9    1
     9     9    10   ar
    10    10    11   ar
    11    11    12   ar
    12    12    13   ar
    13    13    14   ar
    14    14    15   ar
    15    15    16   ar
    16    16    17   ar
    17    17    18   ar
    18    18    19   ar
    19    19    20   ar
    20    20    21   ar
    21     8    22   ar
    22    22    23   ar
    23    23    24   ar
    24    24    25   ar
    25    25    26   ar
    26    26     1   ar
    27    25     4   ar
    28    24     6   ar
    29    14     9   ar
    30    21    16   ar
    31    21    13   ar
    32     1    27    1
    33     2    28    1
    34     5    29    1
    35     7    30    1
    36    10    31    1
    37    12    32    1
    38    15    33    1
    39    17    34    1
    40    18    35    1
    41    20    36    1
    42    22    37    1
    43    23    38    1
    44    26    39    1
