@<TRIPOS>MOLECULE
*****
 35 40 0 0 0
SMALL
GASTEIGER

@<TRIPOS>ATOM
      1 C          -6.7188    0.0271   -0.2170 C.ar    1  UNL1       -0.0429
      2 C          -6.6674    1.0615    0.7089 C.ar    1  UNL1        0.0299
      3 N          -5.5413    1.5952    1.2352 N.ar    1  UNL1       -0.2375
      4 C          -4.4211    1.0149    0.7667 C.ar    1  UNL1        0.1391
      5 N          -3.1565    1.3699    1.1396 N.ar    1  UNL1       -0.3390
      6 C          -2.2256    0.5932    0.4873 C.ar    1  UNL1        0.0493
      7 C          -0.8247    0.6062    0.5609 C.ar    1  UNL1       -0.0255
      8 C          -0.1045   -0.3107   -0.2259 C.ar    1  UNL1        0.0389
      9 C           1.3576   -0.3550   -0.2007 C.ar    1  UNL1        0.2285
     10 N           2.1767   -1.1482   -0.8727 N.ar    1  UNL1       -0.2088
     11 C           3.4241   -0.7549   -0.4663 C.ar    1  UNL1        0.1135
     12 C           4.6996   -1.2071   -0.8136 C.ar    1  UNL1        0.0120
     13 C           5.7844   -0.5855   -0.2106 C.ar    1  UNL1        0.1573
     14 O           7.1110   -0.8479   -0.3863 O.2     1  UNL1       -0.4424
     15 C           7.7245    0.0475    0.4404 C.ar    1  UNL1        0.1831
     16 N           6.9217    0.8432    1.1154 N.ar    1  UNL1       -0.2160
     17 C           5.6730    0.4500    0.7091 C.ar    1  UNL1        0.1129
     18 C           4.3971    0.9015    1.0557 C.ar    1  UNL1        0.0120
     19 C           3.3128    0.2792    0.4521 C.ar    1  UNL1        0.1580
     20 O           1.9884    0.5426    0.6286 O.2     1  UNL1       -0.4352
     21 C          -0.8017   -1.2027   -1.0532 C.ar    1  UNL1       -0.0488
     22 C          -2.2027   -1.2049   -1.1172 C.ar    1  UNL1       -0.0512
     23 C          -2.9314   -0.2903   -0.3328 C.ar    1  UNL1        0.0090
     24 C          -4.3233   -0.0208   -0.1538 C.ar    1  UNL1        0.0264
     25 C          -5.5249   -0.5376   -0.6684 C.ar    1  UNL1       -0.0490
     26 H          -7.6738   -0.3347   -0.5823 H       1  UNL1        0.0633
     27 H          -7.5889    1.5125    1.0708 H       1  UNL1        0.0830
     28 H          -2.9577    2.1027    1.8026 H       1  UNL1        0.1673
     29 H          -0.3152    1.3107    1.2124 H       1  UNL1        0.0646
     30 H           4.8340   -2.0120   -1.5264 H       1  UNL1        0.0677
     31 H           8.8051    0.0184    0.4623 H       1  UNL1        0.1255
     32 H           4.2625    1.7063    1.7684 H       1  UNL1        0.0677
     33 H          -0.2506   -1.9160   -1.6657 H       1  UNL1        0.0625
     34 H          -2.7160   -1.9076   -1.7673 H       1  UNL1        0.0624
     35 H          -5.5264   -1.3466   -1.3908 H       1  UNL1        0.0625
@<TRIPOS>BOND
     1     1     2   ar
     2     2     3   ar
     3     3     4   ar
     4     4     5   ar
     5     5     6   ar
     6     6     7   ar
     7     7     8   ar
     8     8     9    1
     9     9    10   ar
    10    10    11   ar
    11    11    12   ar
    12    12    13   ar
    13    13    14   ar
    14    14    15   ar
    15    15    16   ar
    16    16    17   ar
    17    17    18   ar
    18    18    19   ar
    19    19    20   ar
    20     8    21   ar
    21    21    22   ar
    22    22    23   ar
    23    23    24   ar
    24    24    25   ar
    25    25     1   ar
    26    24     4   ar
    27    23     6   ar
    28    20     9   ar
    29    19    11   ar
    30    17    13   ar
    31     1    26    1
    32     2    27    1
    33     5    28    1
    34     7    29    1
    35    12    30    1
    36    15    31    1
    37    18    32    1
    38    21    33    1
    39    22    34    1
    40    25    35    1
