@<TRIPOS>MOLECULE
*****
 35 40 0 0 0
SMALL
GASTEIGER

@<TRIPOS>ATOM
      1 C          -6.8311    0.0139    0.0867 C.ar    1  UNL1       -0.0429
      2 C          -6.7322    0.2213   -1.2834 C.ar    1  UNL1        0.0299
      3 N          -5.5807    0.3238   -1.9856 N.ar    1  UNL1       -0.2375
      4 C          -4.4857    0.2028   -1.2124 C.ar    1  UNL1        0.1391
      5 N          -3.2033    0.2688   -1.6768 N.ar    1  UNL1       -0.3390
      6 C          -2.3088    0.1089   -0.6432 C.ar    1  UNL1        0.0492
      7 C          -0.9067    0.1054   -0.6517 C.ar    1  UNL1       -0.0280
      8 C          -0.2138   -0.0811    0.5619 C.ar    1  UNL1        0.0091
      9 C           1.2673   -0.0809    0.5268 C.ar    1  UNL1        0.1095
     10 N           1.9706    0.0845   -0.5789 N.ar    1  UNL1       -0.2390
     11 C           3.3260    0.0394   -0.3124 C.ar    1  UNL1        0.0801
     12 C           4.3581    0.1780   -1.2489 C.ar    1  UNL1       -0.0194
     13 C           5.6909    0.1119   -0.8433 C.ar    1  UNL1        0.0410
     14 S           7.1331    0.2481   -1.7736 S.2     1  UNL1       -0.0753
     15 C           8.0585    0.0289   -0.3499 C.ar    1  UNL1        0.0659
     16 N           7.3848   -0.1380    0.7654 N.ar    1  UNL1       -0.2474
     17 C           6.0276   -0.0924    0.4953 C.ar    1  UNL1        0.0793
     18 C           4.9936   -0.2307    1.4300 C.ar    1  UNL1       -0.0194
     19 C           3.6615   -0.1643    1.0224 C.ar    1  UNL1        0.0416
     20 S           2.2220   -0.2995    1.9458 S.2     1  UNL1       -0.0671
     21 C          -0.9587   -0.2570    1.7390 C.ar    1  UNL1       -0.0513
     22 C          -2.3640   -0.2515    1.7346 C.ar    1  UNL1       -0.0513
     23 C          -3.0548   -0.0654    0.5229 C.ar    1  UNL1        0.0090
     24 C          -4.4354   -0.0056    0.1604 C.ar    1  UNL1        0.0264
     25 C          -5.6620   -0.1044    0.8398 C.ar    1  UNL1       -0.0490
     26 H          -7.8037   -0.0548    0.5619 H       1  UNL1        0.0633
     27 H          -7.6338    0.3156   -1.8847 H       1  UNL1        0.0830
     28 H          -2.9680    0.4150   -2.6462 H       1  UNL1        0.1673
     29 H          -0.3623    0.2448   -1.5832 H       1  UNL1        0.0645
     30 H           4.1045    0.3373   -2.2931 H       1  UNL1        0.0651
     31 H           9.1405    0.0290   -0.3746 H       1  UNL1        0.0907
     32 H           5.2461   -0.3901    2.4745 H       1  UNL1        0.0651
     33 H          -0.4691   -0.4043    2.6987 H       1  UNL1        0.0624
     34 H          -2.9103   -0.3905    2.6634 H       1  UNL1        0.0624
     35 H          -5.7008   -0.2668    1.9114 H       1  UNL1        0.0625
@<TRIPOS>BOND
     1     1     2   ar
     2     2     3   ar
     3     3     4   ar
     4     4     5   ar
     5     5     6   ar
     6     6     7   ar
     7     7     8   ar
     8     8     9    1
     9     9    10   ar
    10    10    11   ar
    11    11    12   ar
    12    12    13   ar
    13    13    14   ar
    14    14    15   ar
    15    15    16   ar
    16    16    17   ar
    17    17    18   ar
    18    18    19   ar
    19    19    20   ar
    20     8    21   ar
    21    21    22   ar
    22    22    23   ar
    23    23    24   ar
    24    24    25   ar
    25    25     1   ar
    26    24     4   ar
    27    23     6   ar
    28    20     9   ar
    29    19    11   ar
    30    17    13   ar
    31     1    26    1
    32     2    27    1
    33     5    28    1
    34     7    29    1
    35    12    30    1
    36    15    31    1
    37    18    32    1
    38    21    33    1
    39    22    34    1
    40    25    35    1
