@<TRIPOS>MOLECULE
*****
 35 40 0 0 0
SMALL
GASTEIGER

@<TRIPOS>ATOM
      1 C          -6.7247    0.0845    0.3068 C.ar    1  UNL1       -0.0429
      2 C          -6.7297   -1.0916   -0.4325 C.ar    1  UNL1        0.0299
      3 N          -5.6350   -1.7435   -0.8862 N.ar    1  UNL1       -0.2375
      4 C          -4.4850   -1.1318   -0.5474 C.ar    1  UNL1        0.1391
      5 N          -3.2419   -1.5868   -0.8832 N.ar    1  UNL1       -0.3390
      6 C          -2.2726   -0.7428   -0.3911 C.ar    1  UNL1        0.0493
      7 C          -0.8767   -0.8138   -0.4915 C.ar    1  UNL1       -0.0271
      8 C          -0.1014    0.1938    0.1112 C.ar    1  UNL1        0.0193
      9 C           1.3632    0.1093   -0.0004 C.ar    1  UNL1        0.1422
     10 N           2.0311   -0.8498   -0.6302 N.ar    1  UNL1       -0.2068
     11 C           3.3538   -0.5403   -0.4884 C.ar    1  UNL1        0.1998
     12 N           4.4213   -1.2273   -0.9630 N.ar    1  UNL1       -0.2020
     13 C           5.6212   -0.6734   -0.6627 C.ar    1  UNL1        0.1992
     14 N           6.8648   -1.1342   -1.0021 N.ar    1  UNL1       -0.2152
     15 C           7.7004   -0.2568   -0.4838 C.ar    1  UNL1        0.0973
     16 N           7.0491    0.7524    0.1768 N.ar    1  UNL1       -0.3279
     17 C           5.7142    0.5046    0.0743 C.ar    1  UNL1        0.1791
     18 N           4.6794    1.2186    0.5646 N.ar    1  UNL1       -0.2052
     19 C           3.5087    0.6304    0.2416 C.ar    1  UNL1        0.1795
     20 N           2.2429    1.0269    0.5414 N.ar    1  UNL1       -0.3214
     21 C          -0.7467    1.2356    0.7921 C.ar    1  UNL1       -0.0504
     22 C          -2.1473    1.2942    0.8849 C.ar    1  UNL1       -0.0513
     23 C          -2.9277    0.2883    0.2834 C.ar    1  UNL1        0.0090
     24 C          -4.3312    0.0400    0.1833 C.ar    1  UNL1        0.0264
     25 C          -5.5026    0.6761    0.6301 C.ar    1  UNL1       -0.0490
     26 H          -7.6583    0.5342    0.6269 H       1  UNL1        0.0633
     27 H          -7.6735   -1.5656   -0.6930 H       1  UNL1        0.0830
     28 H          -3.0790   -2.4262   -1.4175 H       1  UNL1        0.1673
     29 H          -0.4001   -1.6333   -1.0258 H       1  UNL1        0.0645
     30 H           8.7799   -0.2983   -0.5530 H       1  UNL1        0.1028
     31 H           7.4677    1.5368    0.6533 H       1  UNL1        0.1683
     32 H           2.0070    1.8511    1.0691 H       1  UNL1        0.1689
     33 H          -0.1860    2.0327    1.2710 H       1  UNL1        0.0625
     34 H          -2.6247    2.1116    1.4179 H       1  UNL1        0.0624
     35 H          -5.4608    1.5941    1.2057 H       1  UNL1        0.0625
@<TRIPOS>BOND
     1     1     2   ar
     2     2     3   ar
     3     3     4   ar
     4     4     5   ar
     5     5     6   ar
     6     6     7   ar
     7     7     8   ar
     8     8     9    1
     9     9    10   ar
    10    10    11   ar
    11    11    12   ar
    12    12    13   ar
    13    13    14   ar
    14    14    15   ar
    15    15    16   ar
    16    16    17   ar
    17    17    18   ar
    18    18    19   ar
    19    19    20   ar
    20     8    21   ar
    21    21    22   ar
    22    22    23   ar
    23    23    24   ar
    24    24    25   ar
    25    25     1   ar
    26    24     4   ar
    27    23     6   ar
    28    20     9   ar
    29    19    11   ar
    30    17    13   ar
    31     1    26    1
    32     2    27    1
    33     5    28    1
    34     7    29    1
    35    15    30    1
    36    16    31    1
    37    20    32    1
    38    21    33    1
    39    22    34    1
    40    25    35    1
