@<TRIPOS>MOLECULE
*****
 35 40 0 0 0
SMALL
GASTEIGER

@<TRIPOS>ATOM
      1 C           6.5584   -0.6820   -0.1508 C.ar    1  UNL1       -0.0416
      2 C           6.1667    0.6125   -0.4858 C.ar    1  UNL1        0.0285
      3 N           4.8924    1.0642   -0.5349 N.ar    1  UNL1       -0.2514
      4 C           3.9856    0.1188   -0.2190 C.ar    1  UNL1        0.1123
      5 C           4.2694   -1.1987    0.1289 C.ar    1  UNL1        0.0675
      6 C           5.5920   -1.6375    0.1714 C.ar    1  UNL1       -0.0348
      7 N           3.0773   -1.8439    0.3788 N.ar    1  UNL1       -0.3512
      8 C           2.0557   -0.9452    0.1904 C.ar    1  UNL1        0.0747
      9 C           0.6423   -0.8270    0.2423 C.ar    1  UNL1        0.0237
     10 C          -0.4230   -1.6843    0.5479 C.ar    1  UNL1       -0.0500
     11 C          -1.7342   -1.1848    0.4859 C.ar    1  UNL1       -0.0517
     12 C          -2.0177    0.1431    0.1202 C.ar    1  UNL1        0.0045
     13 C          -0.9313    0.9971   -0.1724 C.ar    1  UNL1       -0.0285
     14 C           0.3795    0.5004   -0.1113 C.ar    1  UNL1        0.0496
     15 N           1.5738    1.1457   -0.3585 N.ar    1  UNL1       -0.3512
     16 C           2.5873    0.2510   -0.1721 C.ar    1  UNL1        0.0916
     17 C          -3.3896    0.6695    0.0570 C.ar    1  UNL1        0.0991
     18 N          -3.5824    2.0071    0.3447 N.ar    1  UNL1       -0.2527
     19 C          -4.8214    2.5873    0.3116 C.ar    1  UNL1        0.0304
     20 C          -6.0259    1.9758   -0.0070 C.ar    1  UNL1       -0.0153
     21 C          -5.8920    0.6131   -0.3265 C.ar    1  UNL1        0.1034
     22 N          -6.9038   -0.1968   -0.6777 N.ar    1  UNL1       -0.1907
     23 S          -6.2364   -1.6857   -0.9701 S.2     1  UNL1        0.1165
     24 N          -4.6403   -1.3754   -0.6546 N.ar    1  UNL1       -0.1886
     25 C          -4.5493   -0.0783   -0.3020 C.ar    1  UNL1        0.1257
     26 H           7.6117   -0.9437   -0.1411 H       1  UNL1        0.0633
     27 H           6.9169    1.3587   -0.7371 H       1  UNL1        0.0830
     28 H           5.8581   -2.6536    0.4369 H       1  UNL1        0.0639
     29 H           2.9367   -2.8068    0.6538 H       1  UNL1        0.1660
     30 H          -0.2465   -2.7168    0.8322 H       1  UNL1        0.0625
     31 H          -2.5401   -1.8686    0.7461 H       1  UNL1        0.0624
     32 H          -1.1080    2.0349   -0.4468 H       1  UNL1        0.0645
     33 H           1.7229    2.1087   -0.6316 H       1  UNL1        0.1660
     34 H          -4.8115    3.6461    0.5704 H       1  UNL1        0.0830
     35 H          -6.9731    2.4950   -0.0156 H       1  UNL1        0.0655
@<TRIPOS>BOND
     1     1     2   ar
     2     2     3   ar
     3     3     4   ar
     4     4     5   ar
     5     5     6   ar
     6     5     7   ar
     7     7     8   ar
     8     8     9   ar
     9     9    10   ar
    10    10    11   ar
    11    11    12   ar
    12    12    13   ar
    13    13    14   ar
    14    14    15   ar
    15    15    16   ar
    16    12    17    1
    17    17    18   ar
    18    18    19   ar
    19    19    20   ar
    20    20    21   ar
    21    21    22   ar
    22    22    23   ar
    23    23    24   ar
    24    24    25   ar
    25     6     1   ar
    26    16     8   ar
    27    25    17   ar
    28    16     4   ar
    29    25    21   ar
    30    14     9   ar
    31     1    26    1
    32     2    27    1
    33     6    28    1
    34     7    29    1
    35    10    30    1
    36    11    31    1
    37    13    32    1
    38    15    33    1
    39    19    34    1
    40    20    35    1
