@<TRIPOS>MOLECULE
*****
 39 44 0 0 0
SMALL
GASTEIGER

@<TRIPOS>ATOM
      1 C          -2.2625    0.2189   -3.0983 C.ar    1  UNL1        0.0464
      2 C          -3.4634   -0.2406   -2.5488 C.ar    1  UNL1        0.0464
      3 N          -3.6243   -0.6664   -1.2680 N.ar    1  UNL1       -0.2507
      4 C          -2.4534   -0.5808   -0.5705 C.ar    1  UNL1        0.1061
      5 C          -2.3257   -0.9425    0.7492 C.ar    1  UNL1        0.0677
      6 S          -0.7076   -0.7376    1.2851 S.2     1  UNL1       -0.0822
      7 C          -0.1586   -0.1488   -0.2424 C.ar    1  UNL1        0.0489
      8 C           1.2459    0.2480   -0.4164 C.ar    1  UNL1        0.0090
      9 C           2.3056   -0.4700    0.1422 C.ar    1  UNL1       -0.0499
     10 C           3.6242   -0.0462   -0.0522 C.ar    1  UNL1       -0.0320
     11 C           3.8844    1.0990   -0.8088 C.ar    1  UNL1        0.1079
     12 N           2.8626    1.8073   -1.3644 N.ar    1  UNL1       -0.2512
     13 C           1.5926    1.3697   -1.1640 C.ar    1  UNL1        0.0366
     14 C           5.2688    1.5909   -1.0417 C.ar    1  UNL1        0.1812
     15 N           5.4346    2.7006   -1.7745 N.ar    1  UNL1       -0.2145
     16 C           6.6953    3.0829   -1.9423 C.ar    1  UNL1        0.1201
     17 N           7.7705    2.4703   -1.4548 N.ar    1  UNL1       -0.2241
     18 C           7.4916    1.3824   -0.7439 C.ar    1  UNL1        0.1201
     19 N           6.2790    0.8911   -0.4996 N.ar    1  UNL1       -0.2145
     20 C          -1.2086   -0.1132   -1.1390 C.ar    1  UNL1        0.1046
     21 N          -1.0797    0.3058   -2.4327 N.ar    1  UNL1       -0.2508
     22 C          -3.3235   -1.4358    1.6730 C.ar    1  UNL1        0.1077
     23 N          -3.1226   -2.6554    2.2654 N.ar    1  UNL1       -0.2521
     24 C          -4.0482   -3.1727    3.1315 C.ar    1  UNL1        0.0305
     25 C          -5.2476   -2.5903    3.5318 C.ar    1  UNL1       -0.0153
     26 C          -5.4785   -1.3251    2.9582 C.ar    1  UNL1        0.1034
     27 N          -6.5506   -0.5509    3.1897 N.ar    1  UNL1       -0.1907
     28 S          -6.3367    0.8288    2.2909 S.2     1  UNL1        0.1165
     29 N          -4.8707    0.5145    1.5834 N.ar    1  UNL1       -0.1886
     30 C          -4.4939   -0.7096    1.9986 C.ar    1  UNL1        0.1263
     31 H          -2.2260    0.5402   -4.1358 H       1  UNL1        0.0845
     32 H          -4.3626   -0.2771   -3.1576 H       1  UNL1        0.0845
     33 H           2.1289   -1.3709    0.7247 H       1  UNL1        0.0625
     34 H           4.4382   -0.6157    0.3876 H       1  UNL1        0.0640
     35 H           0.8352    1.9877   -1.6410 H       1  UNL1        0.0836
     36 H           6.8615    3.9780   -2.5317 H       1  UNL1        0.1048
     37 H           8.3334    0.8435   -0.3224 H       1  UNL1        0.1048
     38 H          -3.7737   -4.1514    3.5260 H       1  UNL1        0.0830
     39 H          -5.9337   -3.0585    4.2227 H       1  UNL1        0.0655
@<TRIPOS>BOND
     1     1     2   ar
     2     2     3   ar
     3     3     4   ar
     4     4     5   ar
     5     5     6   ar
     6     6     7   ar
     7     7     8    1
     8     8     9   ar
     9     9    10   ar
    10    10    11   ar
    11    11    12   ar
    12    12    13   ar
    13    11    14    1
    14    14    15   ar
    15    15    16   ar
    16    16    17   ar
    17    17    18   ar
    18    18    19   ar
    19     7    20   ar
    20    20    21   ar
    21     5    22    1
    22    22    23   ar
    23    23    24   ar
    24    24    25   ar
    25    25    26   ar
    26    26    27   ar
    27    27    28   ar
    28    28    29   ar
    29    29    30   ar
    30    21     1   ar
    31    30    22   ar
    32    20     4   ar
    33    30    26   ar
    34    13     8   ar
    35    19    14   ar
    36     1    31    1
    37     2    32    1
    38     9    33    1
    39    10    34    1
    40    13    35    1
    41    16    36    1
    42    18    37    1
    43    24    38    1
    44    25    39    1
