@<TRIPOS>MOLECULE
*****
 41 47 0 0 0
SMALL
GASTEIGER

@<TRIPOS>ATOM
      1 C          -3.5561   -0.5278   -3.7041 C.ar    1  UNL1        0.0464
      2 C          -2.1629   -0.5067   -3.8204 C.ar    1  UNL1        0.0464
      3 N          -1.2932   -0.3601   -2.7853 N.ar    1  UNL1       -0.2508
      4 C          -1.9607   -0.2219   -1.6014 C.ar    1  UNL1        0.1047
      5 C          -1.3239   -0.0545   -0.3931 C.ar    1  UNL1        0.0496
      6 S          -2.4659    0.0361    0.8868 S.2     1  UNL1       -0.0807
      7 C          -3.8210   -0.0944   -0.1731 C.ar    1  UNL1        0.0844
      8 C          -5.1689   -0.0359    0.3738 C.ar    1  UNL1        0.1717
      9 N          -6.0499    0.7336   -0.2672 N.ar    1  UNL1       -0.2154
     10 C          -7.2586    0.7473    0.2836 C.ar    1  UNL1        0.1201
     11 N          -7.6276    0.0904    1.3815 N.ar    1  UNL1       -0.2241
     12 C          -6.6549   -0.6320    1.9330 C.ar    1  UNL1        0.1201
     13 N          -5.4082   -0.7392    1.4847 N.ar    1  UNL1       -0.2154
     14 C          -3.4021   -0.2386   -1.4772 C.ar    1  UNL1        0.1075
     15 N          -4.2453   -0.4042   -2.5394 N.ar    1  UNL1       -0.2507
     16 C           0.1005    0.0019   -0.0997 C.ar    1  UNL1        0.0190
     17 C           0.9650   -1.0827   -0.3376 C.ar    1  UNL1       -0.0507
     18 C           2.3535   -1.0363   -0.0709 C.ar    1  UNL1       -0.0511
     19 C           3.0245    0.0967    0.4516 C.ar    1  UNL1        0.0139
     20 C           4.4578    0.1291    0.7196 C.ar    1  UNL1        0.0305
     21 C           5.3304    1.1482    0.3022 C.ar    1  UNL1        0.0375
     22 N           6.6883    1.2450    0.5017 N.ar    1  UNL1       -0.2604
     23 C           7.3583    0.2824    1.1954 C.ar    1  UNL1        0.0557
     24 C           6.6210   -0.8094    1.6904 C.ar    1  UNL1        0.1185
     25 N           7.1061   -1.8471    2.3911 N.ar    1  UNL1       -0.1892
     26 S           5.8136   -2.8300    2.7280 S.2     1  UNL1        0.1165
     27 N           4.5883   -1.9942    1.9873 N.ar    1  UNL1       -0.1901
     28 C           5.1341   -0.8887    1.4448 C.ar    1  UNL1        0.1105
     29 C           2.1909    1.2316    0.6947 C.ar    1  UNL1        0.1083
     30 N           2.5863    2.4223    1.1813 N.ar    1  UNL1       -0.1901
     31 S           1.2412    3.3840    1.2680 S.2     1  UNL1        0.1165
     32 N           0.0862    2.3519    0.6878 N.ar    1  UNL1       -0.1901
     33 C           0.6994    1.1865    0.4117 C.ar    1  UNL1        0.1087
     34 H          -4.1753   -0.6514   -4.5882 H       1  UNL1        0.0845
     35 H          -1.6967   -0.6133   -4.7960 H       1  UNL1        0.0845
     36 H          -8.0146    1.3517   -0.2060 H       1  UNL1        0.1048
     37 H          -6.9032   -1.1850    2.8325 H       1  UNL1        0.1048
     38 H           0.5527   -2.0058   -0.7483 H       1  UNL1        0.0625
     39 H           2.9319   -1.9366   -0.2902 H       1  UNL1        0.0624
     40 H           4.9346    1.9927   -0.2654 H       1  UNL1        0.0836
     41 H           8.4243    0.4045    1.3319 H       1  UNL1        0.0852
@<TRIPOS>BOND
     1     1     2   ar
     2     2     3   ar
     3     3     4   ar
     4     4     5   ar
     5     5     6   ar
     6     6     7   ar
     7     7     8    1
     8     8     9   ar
     9     9    10   ar
    10    10    11   ar
    11    11    12   ar
    12    12    13   ar
    13     7    14   ar
    14    14    15   ar
    15     5    16    1
    16    16    17   ar
    17    17    18   ar
    18    18    19   ar
    19    19    20    1
    20    20    21   ar
    21    21    22   ar
    22    22    23   ar
    23    23    24   ar
    24    24    25   ar
    25    25    26   ar
    26    26    27   ar
    27    27    28   ar
    28    19    29   ar
    29    29    30   ar
    30    30    31   ar
    31    31    32   ar
    32    32    33   ar
    33    15     1   ar
    34    33    16   ar
    35    14     4   ar
    36    28    20   ar
    37    33    29   ar
    38    13     8   ar
    39    28    24   ar
    40     1    34    1
    41     2    35    1
    42    10    36    1
    43    12    37    1
    44    17    38    1
    45    18    39    1
    46    21    40    1
    47    23    41    1
