@<TRIPOS>MOLECULE
*****
 37 43 0 0 0
SMALL
GASTEIGER

@<TRIPOS>ATOM
      1 SI         -2.5871   -1.5427   -3.2945 Si      1  UNL1        0.0000
      2 C          -3.7996   -0.8615   -2.0757 C.2     1  UNL1        0.0000
      3 C          -3.1865   -0.3420   -0.9923 C.ar    1  UNL1        0.0000
      4 C          -3.8553    0.2582    0.1216 C.ar    1  UNL1        0.0000
      5 C          -5.2605    0.4217    0.3025 C.ar    1  UNL1        0.0000
      6 C          -5.5514    1.0424    1.4944 C.ar    1  UNL1        0.0000
      7 S          -4.1408    1.4176    2.3742 S.2     1  UNL1        0.0000
      8 C          -3.1089    0.7571    1.1779 C.ar    1  UNL1        0.0000
      9 C          -1.6326    0.7167    1.2465 C.ar    1  UNL1        0.0000
     10 C          -0.8877    1.2354    2.3417 C.ar    1  UNL1        0.0000
     11 N          -1.3410    1.8306    3.4672 N.ar    1  UNL1        0.0000
     12 S          -0.0316    2.2420    4.4078 S.2     1  UNL1        0.0000
     13 N           1.2071    1.6862    3.4386 N.ar    1  UNL1        0.0000
     14 C           0.5584    1.1885    2.3944 C.ar    1  UNL1        0.0000
     15 C           1.2573    0.5943    1.2954 C.ar    1  UNL1        0.0000
     16 C           2.6654    0.5021    1.2550 C.ar    1  UNL1        0.0000
     17 C           3.0863   -0.1103    0.0922 C.ar    1  UNL1        0.0000
     18 S           1.7399   -0.5350   -0.8783 S.2     1  UNL1        0.0000
     19 C           0.5423    0.0846    0.2209 C.ar    1  UNL1        0.0000
     20 C          -0.8900    0.1255    0.1577 C.ar    1  UNL1        0.0000
     21 C          -1.6891   -0.4218   -0.9991 C.ar    1  UNL1        0.0000
     22 C          -1.2279   -1.0163   -2.1226 C.2     1  UNL1        0.0000
     23 C           4.4593   -0.4000   -0.3401 C.ar    1  UNL1        0.0000
     24 N           5.4291   -0.0235    0.4980 N.ar    1  UNL1        0.0000
     25 C           6.6560   -0.3037    0.0696 C.ar    1  UNL1        0.0000
     26 N           6.9675   -0.9025   -1.0773 N.ar    1  UNL1        0.0000
     27 C           5.9139   -1.2276   -1.8226 C.ar    1  UNL1        0.0000
     28 N           4.6399   -1.0065   -1.5152 N.ar    1  UNL1        0.0000
     29 H          -2.5621   -0.7805   -4.5654 H       1  UNL1        0.0000
     30 H          -2.6760   -3.0161   -3.4292 H       1  UNL1        0.0000
     31 H          -4.8592   -0.9055   -2.2685 H       1  UNL1        0.0000
     32 H          -6.0251    0.1059   -0.3955 H       1  UNL1        0.0000
     33 H          -6.5251    1.2938    1.8915 H       1  UNL1        0.0000
     34 H           3.3466    0.8568    2.0212 H       1  UNL1        0.0000
     35 H          -0.2250   -1.2275   -2.4376 H       1  UNL1        0.0000
     36 H           7.4800   -0.0178    0.7147 H       1  UNL1        0.0000
     37 H           6.1136   -1.7188   -2.7690 H       1  UNL1        0.0000
@<TRIPOS>BOND
     1     1     2    1
     2     2     3    2
     3     3     4   ar
     4     4     5   ar
     5     5     6   ar
     6     6     7   ar
     7     7     8   ar
     8     8     9   ar
     9     9    10   ar
    10    10    11   ar
    11    11    12   ar
    12    12    13   ar
    13    13    14   ar
    14    14    15   ar
    15    15    16   ar
    16    16    17   ar
    17    17    18   ar
    18    18    19   ar
    19    19    20   ar
    20    20    21   ar
    21    21    22    2
    22    17    23    1
    23    23    24   ar
    24    24    25   ar
    25    25    26   ar
    26    26    27   ar
    27    27    28   ar
    28    22     1    1
    29    28    23   ar
    30    21     3   ar
    31     8     4   ar
    32    20     9   ar
    33    14    10   ar
    34    19    15   ar
    35     1    29    1
    36     1    30    1
    37     2    31    1
    38     5    32    1
    39     6    33    1
    40    16    34    1
    41    22    35    1
    42    25    36    1
    43    27    37    1
