@<TRIPOS>MOLECULE
*****
 42 46 0 0 0
SMALL
GASTEIGER

@<TRIPOS>ATOM
      1 C           7.0037    0.2125    0.2237 C.ar    1  UNL1        0.0464
      2 C           6.4330    0.5111    1.4434 C.ar    1  UNL1        0.0464
      3 N           5.0957    0.5264    1.6287 N.ar    1  UNL1       -0.2519
      4 C           4.3370    0.2335    0.5527 C.ar    1  UNL1        0.0897
      5 C           2.9511    0.2310    0.6690 C.ar    1  UNL1       -0.0265
      6 C           2.1074   -0.0660   -0.4142 C.ar    1  UNL1       -0.0157
      7 C           0.6436   -0.0631   -0.2616 C.ar    1  UNL1       -0.0172
      8 C           0.0190   -0.8027    0.7509 C.ar    1  UNL1       -0.0491
      9 C          -1.3784   -0.7943    0.9112 C.ar    1  UNL1       -0.0255
     10 C          -2.1971   -0.0598    0.0333 C.ar    1  UNL1        0.0361
     11 C          -1.5746    0.6739   -0.9935 C.ar    1  UNL1       -0.0255
     12 C          -0.1739    0.6790   -1.1237 C.ar    1  UNL1       -0.0491
     13 C          -2.4009    1.4968   -1.9491 C.3     1  UNL1       -0.0245
     14 C          -3.8242    0.9656   -2.0401 C.3     1  UNL1       -0.0332
     15 C          -4.4050    0.8175   -0.6426 C.3     1  UNL1        0.0125
     16 N          -3.5777   -0.0593    0.1759 N.pl3   1  UNL1       -0.3294
     17 C          -4.2212   -0.9254    1.1553 C.3     1  UNL1        0.0125
     18 C          -3.3627   -1.0721    2.4018 C.3     1  UNL1       -0.0332
     19 C          -1.9924   -1.6123    2.0187 C.3     1  UNL1       -0.0245
     20 C           2.7073   -0.3660   -1.6421 C.ar    1  UNL1       -0.0519
     21 C           4.0988   -0.3670   -1.7736 C.ar    1  UNL1       -0.0337
     22 C           4.9246   -0.0727   -0.6991 C.ar    1  UNL1        0.0892
     23 N           6.2625   -0.0839   -0.8652 N.ar    1  UNL1       -0.2519
     24 H           8.0785    0.2028    0.0856 H       1  UNL1        0.0845
     25 H           7.0370    0.7478    2.3115 H       1  UNL1        0.0845
     26 H           2.5209    0.4810    1.6372 H       1  UNL1        0.0645
     27 H           0.6237   -1.4012    1.4303 H       1  UNL1        0.0627
     28 H           0.2798    1.2784   -1.9111 H       1  UNL1        0.0627
     29 H          -2.4071    2.5366   -1.6002 H       1  UNL1        0.0314
     30 H          -1.9524    1.4812   -2.9494 H       1  UNL1        0.0314
     31 H          -3.8267   -0.0086   -2.5463 H       1  UNL1        0.0283
     32 H          -4.4411    1.6449   -2.6384 H       1  UNL1        0.0283
     33 H          -5.4216    0.4146   -0.7244 H       1  UNL1        0.0464
     34 H          -4.4850    1.7971   -0.1555 H       1  UNL1        0.0464
     35 H          -5.1958   -0.5148    1.4450 H       1  UNL1        0.0464
     36 H          -4.4074   -1.9066    0.7017 H       1  UNL1        0.0464
     37 H          -3.8451   -1.7457    3.1186 H       1  UNL1        0.0283
     38 H          -3.2547   -0.0962    2.8930 H       1  UNL1        0.0283
     39 H          -1.3461   -1.5986    2.9041 H       1  UNL1        0.0314
     40 H          -2.0767   -2.6522    1.6805 H       1  UNL1        0.0314
     41 H           2.0960   -0.6150   -2.5076 H       1  UNL1        0.0624
     42 H           4.5479   -0.6059   -2.7344 H       1  UNL1        0.0640
@<TRIPOS>BOND
     1     1     2   ar
     2     2     3   ar
     3     3     4   ar
     4     4     5   ar
     5     5     6   ar
     6     6     7    1
     7     7     8   ar
     8     8     9   ar
     9     9    10   ar
    10    10    11   ar
    11    11    12   ar
    12    11    13    1
    13    13    14    1
    14    14    15    1
    15    15    16    1
    16    16    17    1
    17    17    18    1
    18    18    19    1
    19     6    20   ar
    20    20    21   ar
    21    21    22   ar
    22    22    23   ar
    23    23     1   ar
    24    22     4   ar
    25    12     7   ar
    26    19     9    1
    27    16    10    1
    28     1    24    1
    29     2    25    1
    30     5    26    1
    31     8    27    1
    32    12    28    1
    33    13    29    1
    34    13    30    1
    35    14    31    1
    36    14    32    1
    37    15    33    1
    38    15    34    1
    39    17    35    1
    40    17    36    1
    41    18    37    1
    42    18    38    1
    43    19    39    1
    44    19    40    1
    45    20    41    1
    46    21    42    1
