@<TRIPOS>MOLECULE
*****
 42 46 0 0 0
SMALL
GASTEIGER

@<TRIPOS>ATOM
      1 C          -6.9977    0.2578   -0.0150 C.ar    1  UNL1       -0.0415
      2 C          -6.4373    0.5928    1.2015 C.ar    1  UNL1        0.0284
      3 N          -5.1077    0.6070    1.4298 N.ar    1  UNL1       -0.2534
      4 C          -4.2956    0.2727    0.4041 C.ar    1  UNL1        0.0897
      5 C          -2.9202    0.2694    0.5864 C.ar    1  UNL1       -0.0251
      6 C          -2.0374   -0.0699   -0.4482 C.ar    1  UNL1        0.0023
      7 C          -0.5804   -0.0726   -0.2574 C.ar    1  UNL1       -0.0157
      8 C           0.1988   -1.1775   -0.6238 C.ar    1  UNL1       -0.0490
      9 C           1.5950   -1.1870   -0.4455 C.ar    1  UNL1       -0.0255
     10 C           2.2566   -0.0637    0.0887 C.ar    1  UNL1        0.0361
     11 C           1.4750    1.0408    0.4813 C.ar    1  UNL1       -0.0255
     12 C           0.0798    1.0317    0.2965 C.ar    1  UNL1       -0.0490
     13 C           2.1156    2.2810    1.0534 C.3     1  UNL1       -0.0245
     14 C           3.5292    2.0154    1.5478 C.3     1  UNL1       -0.0332
     15 C           4.2897    1.2249    0.4962 C.3     1  UNL1        0.0125
     16 N           3.6455   -0.0697    0.2832 N.pl3   1  UNL1       -0.3294
     17 C           4.4134   -1.0705   -0.4548 C.3     1  UNL1        0.0125
     18 C           3.7686   -2.4375   -0.2972 C.3     1  UNL1       -0.0332
     19 C           2.3676   -2.4048   -0.8886 C.3     1  UNL1       -0.0245
     20 C          -2.6228   -0.4012   -1.6666 C.ar    1  UNL1        0.0361
     21 N          -3.9560   -0.4180   -1.9016 N.ar    1  UNL1       -0.2528
     22 C          -4.7648   -0.0849   -0.8772 C.ar    1  UNL1        0.0892
     23 C          -6.1390   -0.0827   -1.0574 C.ar    1  UNL1       -0.0328
     24 H          -8.0728    0.2597   -0.1540 H       1  UNL1        0.0633
     25 H          -7.0576    0.8667    2.0504 H       1  UNL1        0.0830
     26 H          -2.5334    0.5283    1.5697 H       1  UNL1        0.0646
     27 H          -0.2808   -2.0607   -1.0433 H       1  UNL1        0.0627
     28 H          -0.4927    1.9128    0.5834 H       1  UNL1        0.0627
     29 H           1.5142    2.6684    1.8843 H       1  UNL1        0.0314
     30 H           2.1374    3.0487    0.2699 H       1  UNL1        0.0314
     31 H           4.0366    2.9630    1.7590 H       1  UNL1        0.0283
     32 H           3.4950    1.4470    2.4864 H       1  UNL1        0.0283
     33 H           4.3469    1.7812   -0.4482 H       1  UNL1        0.0464
     34 H           5.3173    1.0717    0.8464 H       1  UNL1        0.0464
     35 H           5.4351   -1.1159   -0.0596 H       1  UNL1        0.0464
     36 H           4.4856   -0.7900   -1.5134 H       1  UNL1        0.0464
     37 H           3.7176   -2.7031    0.7668 H       1  UNL1        0.0283
     38 H           4.3683   -3.2062   -0.7966 H       1  UNL1        0.0283
     39 H           2.4304   -2.3913   -1.9839 H       1  UNL1        0.0314
     40 H           1.8357   -3.3176   -0.5955 H       1  UNL1        0.0314
     41 H          -2.0138   -0.6642   -2.5288 H       1  UNL1        0.0836
     42 H          -6.5451   -0.3518   -2.0287 H       1  UNL1        0.0640
@<TRIPOS>BOND
     1     1     2   ar
     2     2     3   ar
     3     3     4   ar
     4     4     5   ar
     5     5     6   ar
     6     6     7    1
     7     7     8   ar
     8     8     9   ar
     9     9    10   ar
    10    10    11   ar
    11    11    12   ar
    12    11    13    1
    13    13    14    1
    14    14    15    1
    15    15    16    1
    16    16    17    1
    17    17    18    1
    18    18    19    1
    19     6    20   ar
    20    20    21   ar
    21    21    22   ar
    22    22    23   ar
    23    23     1   ar
    24    22     4   ar
    25    12     7   ar
    26    19     9    1
    27    16    10    1
    28     1    24    1
    29     2    25    1
    30     5    26    1
    31     8    27    1
    32    12    28    1
    33    13    29    1
    34    13    30    1
    35    14    31    1
    36    14    32    1
    37    15    33    1
    38    15    34    1
    39    17    35    1
    40    17    36    1
    41    18    37    1
    42    18    38    1
    43    19    39    1
    44    19    40    1
    45    20    41    1
    46    23    42    1
