@<TRIPOS>MOLECULE
*****
 33 37 0 0 0
SMALL
GASTEIGER

@<TRIPOS>ATOM
      1 C          -6.3693    0.5329   -0.6531 C.ar    1  UNL1        0.0464
      2 C          -5.7085    1.5729   -1.2731 C.ar    1  UNL1        0.0464
      3 N          -4.3605    1.6517   -1.3078 N.ar    1  UNL1       -0.2519
      4 C          -3.6855    0.6546   -0.7009 C.ar    1  UNL1        0.0898
      5 C          -2.2934    0.6741   -0.6994 C.ar    1  UNL1       -0.0251
      6 C          -1.5301   -0.3311   -0.0868 C.ar    1  UNL1        0.0005
      7 C          -0.0575   -0.3048   -0.0887 C.ar    1  UNL1        0.0475
      8 C           0.8633   -1.1917    0.4542 C.ar    1  UNL1       -0.0287
      9 C           2.1782   -0.7239    0.1850 C.ar    1  UNL1        0.0010
     10 C           3.4697   -1.1949    0.4809 C.ar    1  UNL1       -0.0418
     11 C           4.5989   -0.4788    0.0604 C.ar    1  UNL1        0.0208
     12 C           6.0062   -0.6316    0.1658 C.ar    1  UNL1       -0.0161
     13 C           6.5641    0.4491   -0.4797 C.ar    1  UNL1        0.0931
     14 O           5.5961    1.2627   -0.9788 O.2     1  UNL1       -0.4629
     15 C           4.4030    0.6980   -0.6501 C.ar    1  UNL1        0.1368
     16 C           3.1457    1.1926   -0.9599 C.ar    1  UNL1        0.0051
     17 C           2.0400    0.4614   -0.5301 C.ar    1  UNL1        0.0505
     18 N           0.6941    0.6918   -0.6816 N.ar    1  UNL1       -0.3540
     19 C          -2.2204   -1.3759    0.5358 C.ar    1  UNL1       -0.0505
     20 C          -3.6189   -1.4082    0.5420 C.ar    1  UNL1       -0.0336
     21 C          -4.3649   -0.4115   -0.0654 C.ar    1  UNL1        0.0892
     22 N          -5.7113   -0.4742   -0.0404 N.ar    1  UNL1       -0.2519
     23 H          -7.4515    0.4787   -0.6308 H       1  UNL1        0.0845
     24 H          -6.2460    2.3769   -1.7624 H       1  UNL1        0.0845
     25 H          -1.8209    1.5132   -1.2002 H       1  UNL1        0.0646
     26 H           0.6259   -2.0969    0.9970 H       1  UNL1        0.0645
     27 H           3.5911   -2.1192    1.0387 H       1  UNL1        0.0631
     28 H           6.5466   -1.4307    0.6521 H       1  UNL1        0.0655
     29 H           7.5803    0.7691   -0.6627 H       1  UNL1        0.1029
     30 H           3.0396    2.1167   -1.5174 H       1  UNL1        0.0675
     31 H           0.3195    1.4927   -1.1675 H       1  UNL1        0.1659
     32 H          -1.6884   -2.1856    1.0285 H       1  UNL1        0.0625
     33 H          -4.1354   -2.2300    1.0319 H       1  UNL1        0.0640
@<TRIPOS>BOND
     1     1     2   ar
     2     2     3   ar
     3     3     4   ar
     4     4     5   ar
     5     5     6   ar
     6     6     7    1
     7     7     8   ar
     8     8     9   ar
     9     9    10   ar
    10    10    11   ar
    11    11    12   ar
    12    12    13   ar
    13    13    14   ar
    14    14    15   ar
    15    15    16   ar
    16    16    17   ar
    17    17    18   ar
    18     6    19   ar
    19    19    20   ar
    20    20    21   ar
    21    21    22   ar
    22    22     1   ar
    23    21     4   ar
    24    18     7   ar
    25    17     9   ar
    26    15    11   ar
    27     1    23    1
    28     2    24    1
    29     5    25    1
    30     8    26    1
    31    10    27    1
    32    12    28    1
    33    13    29    1
    34    16    30    1
    35    18    31    1
    36    19    32    1
    37    20    33    1
