@<TRIPOS>MOLECULE
*****
 33 37 0 0 0
SMALL
GASTEIGER

@<TRIPOS>ATOM
      1 C          -6.2874    0.4775   -1.0718 C.ar    1  UNL1       -0.0415
      2 C          -5.5263    0.7061   -2.2007 C.ar    1  UNL1        0.0284
      3 N          -4.1788    0.6383   -2.2158 N.ar    1  UNL1       -0.2534
      4 C          -3.5563    0.3296   -1.0579 C.ar    1  UNL1        0.0898
      5 C          -2.1707    0.2472   -1.0198 C.ar    1  UNL1       -0.0237
      6 C          -1.4780   -0.0694    0.1553 C.ar    1  UNL1        0.0185
      7 C          -0.0090   -0.1516    0.1740 C.ar    1  UNL1        0.0490
      8 C           0.9164    0.0417   -0.8434 C.ar    1  UNL1       -0.0286
      9 C           2.2261   -0.1508   -0.3262 C.ar    1  UNL1        0.0010
     10 C           3.5191   -0.0885   -0.8753 C.ar    1  UNL1       -0.0418
     11 C           4.6419   -0.3386   -0.0744 C.ar    1  UNL1        0.0208
     12 C           6.0485   -0.3681   -0.2632 C.ar    1  UNL1       -0.0161
     13 C           6.5982   -0.6881    0.9579 C.ar    1  UNL1        0.0931
     14 O           5.6257   -0.8592    1.8924 O.2     1  UNL1       -0.4629
     15 C           4.4382   -0.6467    1.2640 C.ar    1  UNL1        0.1368
     16 C           3.1790   -0.7171    1.8396 C.ar    1  UNL1        0.0051
     17 C           2.0797   -0.4640    1.0214 C.ar    1  UNL1        0.0505
     18 N           0.7338   -0.4587    1.2983 N.ar    1  UNL1       -0.3540
     19 C          -2.2649   -0.2956    1.2800 C.ar    1  UNL1        0.0375
     20 N          -3.6179   -0.2296    1.3035 N.ar    1  UNL1       -0.2528
     21 C          -4.2391    0.0782    0.1493 C.ar    1  UNL1        0.0892
     22 C          -5.6222    0.1608    0.1101 C.ar    1  UNL1       -0.0328
     23 H          -7.3689    0.5426   -1.1050 H       1  UNL1        0.0633
     24 H          -5.9899    0.9569   -3.1507 H       1  UNL1        0.0830
     25 H          -1.6349    0.4392   -1.9452 H       1  UNL1        0.0646
     26 H           0.6850    0.2983   -1.8691 H       1  UNL1        0.0645
     27 H           3.6467    0.1551   -1.9264 H       1  UNL1        0.0631
     28 H           6.5937   -0.1794   -1.1766 H       1  UNL1        0.0655
     29 H           7.6109   -0.8256    1.3102 H       1  UNL1        0.1029
     30 H           3.0675   -0.9614    2.8902 H       1  UNL1        0.0675
     31 H           0.3581   -0.6568    2.2135 H       1  UNL1        0.1659
     32 H          -1.8348   -0.5480    2.2438 H       1  UNL1        0.0836
     33 H          -6.1894   -0.0255    1.0181 H       1  UNL1        0.0640
@<TRIPOS>BOND
     1     1     2   ar
     2     2     3   ar
     3     3     4   ar
     4     4     5   ar
     5     5     6   ar
     6     6     7    1
     7     7     8   ar
     8     8     9   ar
     9     9    10   ar
    10    10    11   ar
    11    11    12   ar
    12    12    13   ar
    13    13    14   ar
    14    14    15   ar
    15    15    16   ar
    16    16    17   ar
    17    17    18   ar
    18     6    19   ar
    19    19    20   ar
    20    20    21   ar
    21    21    22   ar
    22    22     1   ar
    23    21     4   ar
    24    18     7   ar
    25    17     9   ar
    26    15    11   ar
    27     1    23    1
    28     2    24    1
    29     5    25    1
    30     8    26    1
    31    10    27    1
    32    12    28    1
    33    13    29    1
    34    16    30    1
    35    18    31    1
    36    19    32    1
    37    22    33    1
