@<TRIPOS>MOLECULE
*****
 32 36 0 0 0
SMALL
GASTEIGER

@<TRIPOS>ATOM
      1 C           6.3668    0.2174    0.4681 C.ar    1  UNL1        0.0464
      2 C           5.9041    1.4182   -0.0285 C.ar    1  UNL1        0.0464
      3 N           4.5887    1.6633   -0.2124 N.ar    1  UNL1       -0.2519
      4 C           3.7414    0.6675    0.1162 C.ar    1  UNL1        0.0898
      5 C           2.3727    0.8529   -0.0483 C.ar    1  UNL1       -0.0236
      6 C           1.4419   -0.1443    0.2752 C.ar    1  UNL1        0.0194
      7 C           0.0105    0.0839    0.0900 C.ar    1  UNL1        0.1363
      8 C          -0.7482    1.1448   -0.3723 C.ar    1  UNL1       -0.0080
      9 C          -2.1078    0.7431   -0.3087 C.ar    1  UNL1        0.0243
     10 C          -3.3478    1.3178   -0.6152 C.ar    1  UNL1       -0.0080
     11 C          -4.4968    0.5639   -0.4008 C.ar    1  UNL1        0.1356
     12 O          -5.7746    0.9639   -0.6422 O.2     1  UNL1       -0.4629
     13 C          -6.5830   -0.0724   -0.2954 C.ar    1  UNL1        0.0931
     14 C          -5.8406   -1.1357    0.1668 C.ar    1  UNL1       -0.0160
     15 C          -4.4814   -0.7329    0.1027 C.ar    1  UNL1        0.0236
     16 C          -3.2407   -1.3064    0.4088 C.ar    1  UNL1       -0.0080
     17 C          -2.0924   -0.5516    0.1940 C.ar    1  UNL1        0.1365
     18 O          -0.8163   -0.9511    0.4351 O.2     1  UNL1       -0.4548
     19 C           1.9282   -1.3551    0.7773 C.ar    1  UNL1       -0.0489
     20 C           3.3015   -1.5545    0.9474 C.ar    1  UNL1       -0.0336
     21 C           4.2178   -0.5650    0.6260 C.ar    1  UNL1        0.0892
     22 N           5.5346   -0.7917    0.8028 N.ar    1  UNL1       -0.2519
     23 H           7.4246    0.0306    0.6120 H       1  UNL1        0.0845
     24 H           6.5805    2.2222   -0.2943 H       1  UNL1        0.0845
     25 H           2.0414    1.8107   -0.4418 H       1  UNL1        0.0646
     26 H          -0.3722    2.0977   -0.7161 H       1  UNL1        0.0661
     27 H          -3.4207    2.3255   -1.0106 H       1  UNL1        0.0661
     28 H          -7.6419    0.0978   -0.4329 H       1  UNL1        0.1029
     29 H          -6.2314   -2.0837    0.5077 H       1  UNL1        0.0655
     30 H          -3.1678   -2.3141    0.8042 H       1  UNL1        0.0661
     31 H           1.2461   -2.1605    1.0432 H       1  UNL1        0.0625
     32 H           3.6626   -2.5023    1.3391 H       1  UNL1        0.0640
@<TRIPOS>BOND
     1     1     2   ar
     2     2     3   ar
     3     3     4   ar
     4     4     5   ar
     5     5     6   ar
     6     6     7    1
     7     7     8   ar
     8     8     9   ar
     9     9    10   ar
    10    10    11   ar
    11    11    12   ar
    12    12    13   ar
    13    13    14   ar
    14    14    15   ar
    15    15    16   ar
    16    16    17   ar
    17    17    18   ar
    18     6    19   ar
    19    19    20   ar
    20    20    21   ar
    21    21    22   ar
    22    22     1   ar
    23    21     4   ar
    24    18     7   ar
    25    17     9   ar
    26    15    11   ar
    27     1    23    1
    28     2    24    1
    29     5    25    1
    30     8    26    1
    31    10    27    1
    32    13    28    1
    33    14    29    1
    34    16    30    1
    35    19    31    1
    36    20    32    1
