@<TRIPOS>MOLECULE
*****
 32 36 0 0 0
SMALL
GASTEIGER

@<TRIPOS>ATOM
      1 C           6.3514   -0.0148   -0.0803 C.ar    1  UNL1       -0.0415
      2 C           5.8534    0.6481   -1.1844 C.ar    1  UNL1        0.0284
      3 N           4.5352    0.8074   -1.4255 N.ar    1  UNL1       -0.2534
      4 C           3.6712    0.2848   -0.5300 C.ar    1  UNL1        0.0898
      5 C           2.3058    0.4227   -0.7342 C.ar    1  UNL1       -0.0221
      6 C           1.3732   -0.1022    0.1666 C.ar    1  UNL1        0.0374
      7 C          -0.0599    0.0443   -0.0508 C.ar    1  UNL1        0.1378
      8 C          -0.8341    0.6375   -1.0320 C.ar    1  UNL1       -0.0079
      9 C          -2.1912    0.4371   -0.6680 C.ar    1  UNL1        0.0243
     10 C          -3.4418    0.7705   -1.2032 C.ar    1  UNL1       -0.0080
     11 C          -4.5829    0.3740   -0.5138 C.ar    1  UNL1        0.1356
     12 O          -5.8690    0.6122   -0.8883 O.2     1  UNL1       -0.4629
     13 C          -6.6648    0.0558    0.0629 C.ar    1  UNL1        0.0931
     14 C          -5.9060   -0.5384    1.0461 C.ar    1  UNL1       -0.0160
     15 C          -4.5495   -0.3376    0.6813 C.ar    1  UNL1        0.0236
     16 C          -3.2982   -0.6704    1.2155 C.ar    1  UNL1       -0.0080
     17 C          -2.1580   -0.2733    0.5253 C.ar    1  UNL1        0.1365
     18 O          -0.8732   -0.5112    0.8992 O.2     1  UNL1       -0.4547
     19 C           1.8888   -0.7667    1.2731 C.ar    1  UNL1        0.0390
     20 N           3.2110   -0.9308    1.5222 N.ar    1  UNL1       -0.2527
     21 C           4.0745   -0.4100    0.6296 C.ar    1  UNL1        0.0892
     22 C           5.4394   -0.5449    0.8290 C.ar    1  UNL1       -0.0328
     23 H           7.4194   -0.1192    0.0736 H       1  UNL1        0.0633
     24 H           6.5177    1.0819   -1.9267 H       1  UNL1        0.0830
     25 H           1.9795    0.9556   -1.6232 H       1  UNL1        0.0647
     26 H          -0.4702    1.1546   -1.9084 H       1  UNL1        0.0661
     27 H          -3.5292    1.3243   -2.1321 H       1  UNL1        0.0661
     28 H          -7.7283    0.1647   -0.0988 H       1  UNL1        0.1029
     29 H          -6.2847   -1.0526    1.9178 H       1  UNL1        0.0655
     30 H          -3.2117   -1.2242    2.1445 H       1  UNL1        0.0661
     31 H           1.2366   -1.2061    2.0246 H       1  UNL1        0.0837
     32 H           5.7955   -1.0731    1.7094 H       1  UNL1        0.0640
@<TRIPOS>BOND
     1     1     2   ar
     2     2     3   ar
     3     3     4   ar
     4     4     5   ar
     5     5     6   ar
     6     6     7    1
     7     7     8   ar
     8     8     9   ar
     9     9    10   ar
    10    10    11   ar
    11    11    12   ar
    12    12    13   ar
    13    13    14   ar
    14    14    15   ar
    15    15    16   ar
    16    16    17   ar
    17    17    18   ar
    18     6    19   ar
    19    19    20   ar
    20    20    21   ar
    21    21    22   ar
    22    22     1   ar
    23    21     4   ar
    24    18     7   ar
    25    17     9   ar
    26    15    11   ar
    27     1    23    1
    28     2    24    1
    29     5    25    1
    30     8    26    1
    31    10    27    1
    32    13    28    1
    33    14    29    1
    34    16    30    1
    35    19    31    1
    36    22    32    1
