@<TRIPOS>MOLECULE
*****
 31 35 0 0 0
SMALL
GASTEIGER

@<TRIPOS>ATOM
      1 C           6.1426   -0.1476   -0.2358 C.ar    1  UNL1        0.0464
      2 C           5.5875    0.3296   -1.4048 C.ar    1  UNL1        0.0464
      3 N           4.2523    0.4448   -1.5742 N.ar    1  UNL1       -0.2519
      4 C           3.4811    0.0669   -0.5350 C.ar    1  UNL1        0.0898
      5 C           2.0961    0.1600   -0.6434 C.ar    1  UNL1       -0.0251
      6 C           1.2361   -0.2159    0.3993 C.ar    1  UNL1        0.0005
      7 C          -0.2281   -0.1150    0.2783 C.ar    1  UNL1        0.0502
      8 C          -1.2356   -0.4342    1.1885 C.ar    1  UNL1       -0.0087
      9 C          -2.4848   -0.1557    0.5936 C.ar    1  UNL1        0.1089
     10 N          -3.7556   -0.2907    1.0576 N.ar    1  UNL1       -0.2387
     11 C          -4.7254    0.0878    0.1810 C.ar    1  UNL1        0.1293
     12 C          -6.1317    0.0998    0.2822 C.ar    1  UNL1        0.0039
     13 C          -6.5922    0.5879   -0.9222 C.ar    1  UNL1        0.0966
     14 O          -5.5583    0.8784   -1.7614 O.2     1  UNL1       -0.4439
     15 C          -4.4146    0.5734   -1.0890 C.ar    1  UNL1        0.2478
     16 N          -3.1630    0.7165   -1.5719 N.ar    1  UNL1       -0.1914
     17 C          -2.2294    0.3328   -0.6786 C.ar    1  UNL1        0.1609
     18 N          -0.8768    0.3524   -0.8552 N.ar    1  UNL1       -0.3377
     19 C           1.8193   -0.6971    1.5756 C.ar    1  UNL1       -0.0505
     20 C           3.2094   -0.7959    1.6978 C.ar    1  UNL1       -0.0336
     21 C           4.0520   -0.4224    0.6634 C.ar    1  UNL1        0.0892
     22 N           5.3869   -0.5308    0.8153 N.ar    1  UNL1       -0.2519
     23 H           7.2153   -0.2364   -0.1095 H       1  UNL1        0.0845
     24 H           6.2027    0.6348   -2.2434 H       1  UNL1        0.0845
     25 H           1.7097    0.5417   -1.5836 H       1  UNL1        0.0646
     26 H          -1.0985   -0.8293    2.1854 H       1  UNL1        0.0661
     27 H          -6.7305   -0.2084    1.1258 H       1  UNL1        0.0671
     28 H          -7.5786    0.7804   -1.3220 H       1  UNL1        0.1031
     29 H          -0.4408    0.6698   -1.7072 H       1  UNL1        0.1674
     30 H           1.2100   -1.0054    2.4215 H       1  UNL1        0.0625
     31 H           3.6426   -1.1727    2.6212 H       1  UNL1        0.0640
@<TRIPOS>BOND
     1     1     2   ar
     2     2     3   ar
     3     3     4   ar
     4     4     5   ar
     5     5     6   ar
     6     6     7    1
     7     7     8   ar
     8     8     9   ar
     9     9    10   ar
    10    10    11   ar
    11    11    12   ar
    12    12    13   ar
    13    13    14   ar
    14    14    15   ar
    15    15    16   ar
    16    16    17   ar
    17    17    18   ar
    18     6    19   ar
    19    19    20   ar
    20    20    21   ar
    21    21    22   ar
    22    22     1   ar
    23    21     4   ar
    24    18     7   ar
    25    17     9   ar
    26    15    11   ar
    27     1    23    1
    28     2    24    1
    29     5    25    1
    30     8    26    1
    31    12    27    1
    32    13    28    1
    33    18    29    1
    34    19    30    1
    35    20    31    1
