@<TRIPOS>MOLECULE
*****
 31 35 0 0 0
SMALL
GASTEIGER

@<TRIPOS>ATOM
      1 C          -6.1008    0.1498    0.6277 C.ar    1  UNL1       -0.0415
      2 C          -5.5699    1.2257   -0.0554 C.ar    1  UNL1        0.0284
      3 N          -4.2530    1.3663   -0.3140 N.ar    1  UNL1       -0.2534
      4 C          -3.4239    0.3955    0.1248 C.ar    1  UNL1        0.0898
      5 C          -2.0597    0.4930   -0.1158 C.ar    1  UNL1       -0.0237
      6 C          -1.1580   -0.4866    0.3180 C.ar    1  UNL1        0.0185
      7 C           0.2841   -0.3637    0.0524 C.ar    1  UNL1        0.0516
      8 C           0.9972    0.6347   -0.6113 C.ar    1  UNL1       -0.0087
      9 C           2.3663    0.2917   -0.6025 C.ar    1  UNL1        0.1089
     10 N           3.4588    0.9224   -1.1090 N.ar    1  UNL1       -0.2387
     11 C           4.6380    0.2754   -0.9017 C.ar    1  UNL1        0.1293
     12 C           5.9626    0.5954   -1.2633 C.ar    1  UNL1        0.0039
     13 C           6.7437   -0.4350   -0.7842 C.ar    1  UNL1        0.0966
     14 O           5.9843   -1.3718   -0.1491 O.2     1  UNL1       -0.4439
     15 C           4.6954   -0.9398   -0.2194 C.ar    1  UNL1        0.2478
     16 N           3.6264   -1.5850    0.2922 N.ar    1  UNL1       -0.1914
     17 C           2.4779   -0.9165    0.0684 C.ar    1  UNL1        0.1609
     18 N           1.2264   -1.2984    0.4553 N.ar    1  UNL1       -0.3377
     19 C          -1.7143   -1.5617    1.0041 C.ar    1  UNL1        0.0375
     20 N          -3.0345   -1.7100    1.2676 N.ar    1  UNL1       -0.2528
     21 C          -3.8630   -0.7426    0.8307 C.ar    1  UNL1        0.0892
     22 C          -5.2249   -0.8385    1.0700 C.ar    1  UNL1       -0.0328
     23 H          -7.1663    0.0773    0.8136 H       1  UNL1        0.0633
     24 H          -6.2044    2.0269   -0.4242 H       1  UNL1        0.0830
     25 H          -1.7124    1.3673   -0.6595 H       1  UNL1        0.0646
     26 H           0.5841    1.5269   -1.0619 H       1  UNL1        0.0661
     27 H           6.3022    1.4660   -1.8037 H       1  UNL1        0.0671
     28 H           7.8049   -0.6422   -0.8107 H       1  UNL1        0.1031
     29 H           1.0513   -2.1518    0.9636 H       1  UNL1        0.1674
     30 H          -1.1104   -2.3788    1.3862 H       1  UNL1        0.0836
     31 H          -5.6080   -1.6995    1.6110 H       1  UNL1        0.0640
@<TRIPOS>BOND
     1     1     2   ar
     2     2     3   ar
     3     3     4   ar
     4     4     5   ar
     5     5     6   ar
     6     6     7    1
     7     7     8   ar
     8     8     9   ar
     9     9    10   ar
    10    10    11   ar
    11    11    12   ar
    12    12    13   ar
    13    13    14   ar
    14    14    15   ar
    15    15    16   ar
    16    16    17   ar
    17    17    18   ar
    18     6    19   ar
    19    19    20   ar
    20    20    21   ar
    21    21    22   ar
    22    22     1   ar
    23    21     4   ar
    24    18     7   ar
    25    17     9   ar
    26    15    11   ar
    27     1    23    1
    28     2    24    1
    29     5    25    1
    30     8    26    1
    31    12    27    1
    32    13    28    1
    33    18    29    1
    34    19    30    1
    35    22    31    1
