@<TRIPOS>MOLECULE
*****
 28 31 0 0 0
SMALL
GASTEIGER

@<TRIPOS>ATOM
      1 C           5.1702   -0.2458   -0.2422 C.ar    1  UNL1        0.0464
      2 C           4.5615   -1.0075   -1.2179 C.ar    1  UNL1        0.0464
      3 N           3.2187   -1.0970   -1.3285 N.ar    1  UNL1       -0.2519
      4 C           2.4945   -0.4004   -0.4295 C.ar    1  UNL1        0.0897
      5 C           1.1053   -0.4466   -0.4828 C.ar    1  UNL1       -0.0265
      6 C           0.2959    0.2581    0.4235 C.ar    1  UNL1       -0.0157
      7 C          -1.1732    0.1906    0.3431 C.ar    1  UNL1       -0.0156
      8 C          -1.9443    1.3688    0.2710 C.ar    1  UNL1       -0.0519
      9 C          -3.3450    1.3506    0.1930 C.ar    1  UNL1       -0.0342
     10 C          -3.9444    0.0933    0.1910 C.ar    1  UNL1        0.0858
     11 N          -5.2421   -0.3295    0.1281 N.ar    1  UNL1       -0.2571
     12 N          -5.3359   -1.6687    0.1585 N.ar    1  UNL1       -0.0673
     13 N          -4.1019   -2.1515    0.2399 N.ar    1  UNL1       -0.1297
     14 C          -3.2317   -1.0943    0.2600 C.ar    1  UNL1        0.1130
     15 C          -1.8321   -1.0560    0.3362 C.ar    1  UNL1       -0.0247
     16 C           0.9336    1.0245    1.4052 C.ar    1  UNL1       -0.0519
     17 C           2.3287    1.0793    1.4706 C.ar    1  UNL1       -0.0337
     18 C           3.1210    0.3815    0.5713 C.ar    1  UNL1        0.0892
     19 N           4.4633    0.4602    0.6660 N.ar    1  UNL1       -0.2519
     20 H           6.2490   -0.1808   -0.1619 H       1  UNL1        0.0845
     21 H           5.1379   -1.5707   -1.9425 H       1  UNL1        0.0845
     22 H           0.6471   -1.0468   -1.2671 H       1  UNL1        0.0645
     23 H          -1.4440    2.3375    0.2618 H       1  UNL1        0.0624
     24 H          -3.9192    2.2687    0.1340 H       1  UNL1        0.0639
     25 H          -6.0918    0.2171    0.0655 H       1  UNL1        0.1907
     26 H          -1.2804   -1.9887    0.3991 H       1  UNL1        0.0646
     27 H           0.3510    1.5778    2.1396 H       1  UNL1        0.0624
     28 H           2.8083    1.6765    2.2423 H       1  UNL1        0.0640
@<TRIPOS>BOND
     1     1     2   ar
     2     2     3   ar
     3     3     4   ar
     4     4     5   ar
     5     5     6   ar
     6     6     7    1
     7     7     8   ar
     8     8     9   ar
     9     9    10   ar
    10    10    11   ar
    11    11    12   ar
    12    12    13   ar
    13    13    14   ar
    14    14    15   ar
    15     6    16   ar
    16    16    17   ar
    17    17    18   ar
    18    18    19   ar
    19    19     1   ar
    20    18     4   ar
    21    15     7   ar
    22    14    10   ar
    23     1    20    1
    24     2    21    1
    25     5    22    1
    26     8    23    1
    27     9    24    1
    28    11    25    1
    29    15    26    1
    30    16    27    1
    31    17    28    1
