@<TRIPOS>MOLECULE
*****
 28 31 0 0 0
SMALL
GASTEIGER

@<TRIPOS>ATOM
      1 C           5.1638    0.2475   -0.0983 C.ar    1  UNL1       -0.0415
      2 C           4.5790    1.4124   -0.5539 C.ar    1  UNL1        0.0284
      3 N           3.2445    1.6067   -0.6006 N.ar    1  UNL1       -0.2534
      4 C           2.4536    0.5981   -0.1770 C.ar    1  UNL1        0.0897
      5 C           1.0743    0.7459   -0.2069 C.ar    1  UNL1       -0.0251
      6 C           0.2108   -0.2713    0.2231 C.ar    1  UNL1        0.0023
      7 C          -1.2517   -0.1137    0.1938 C.ar    1  UNL1       -0.0142
      8 C          -1.8639    1.0249    0.7578 C.ar    1  UNL1       -0.0519
      9 C          -3.2539    1.2166    0.7536 C.ar    1  UNL1       -0.0342
     10 C          -4.0112    0.2124    0.1558 C.ar    1  UNL1        0.0858
     11 N          -5.3518    0.0370   -0.0423 N.ar    1  UNL1       -0.2571
     12 N          -5.6181   -1.1140   -0.6809 N.ar    1  UNL1       -0.0673
     13 N          -4.4582   -1.7155   -0.9161 N.ar    1  UNL1       -0.1297
     14 C          -3.4596   -0.9253   -0.4132 C.ar    1  UNL1        0.1130
     15 C          -2.0680   -1.0992   -0.3995 C.ar    1  UNL1       -0.0247
     16 C           0.8201   -1.4361    0.6806 C.ar    1  UNL1        0.0361
     17 N           2.1579   -1.6362    0.7310 N.ar    1  UNL1       -0.2528
     18 C           2.9479   -0.6308    0.3072 C.ar    1  UNL1        0.0892
     19 C           4.3258   -0.7774    0.3345 C.ar    1  UNL1       -0.0328
     20 H           6.2417    0.1344   -0.0785 H       1  UNL1        0.0633
     21 H           5.1827    2.2450   -0.9042 H       1  UNL1        0.0830
     22 H           0.6703    1.6805   -0.5900 H       1  UNL1        0.0646
     23 H          -1.2460    1.7902    1.2292 H       1  UNL1        0.0624
     24 H          -3.7034    2.0992    1.1957 H       1  UNL1        0.0639
     25 H          -6.1226    0.6383    0.2206 H       1  UNL1        0.1907
     26 H          -1.6457   -1.9867   -0.8604 H       1  UNL1        0.0646
     27 H           0.2304   -2.2747    1.0449 H       1  UNL1        0.0836
     28 H           4.7514   -1.7083    0.6994 H       1  UNL1        0.0640
@<TRIPOS>BOND
     1     1     2   ar
     2     2     3   ar
     3     3     4   ar
     4     4     5   ar
     5     5     6   ar
     6     6     7    1
     7     7     8   ar
     8     8     9   ar
     9     9    10   ar
    10    10    11   ar
    11    11    12   ar
    12    12    13   ar
    13    13    14   ar
    14    14    15   ar
    15     6    16   ar
    16    16    17   ar
    17    17    18   ar
    18    18    19   ar
    19    19     1   ar
    20    18     4   ar
    21    15     7   ar
    22    14    10   ar
    23     1    20    1
    24     2    21    1
    25     5    22    1
    26     8    23    1
    27     9    24    1
    28    11    25    1
    29    15    26    1
    30    16    27    1
    31    19    28    1
