@<TRIPOS>MOLECULE
*****
 43 50 0 0 0
SMALL
GASTEIGER

@<TRIPOS>ATOM
      1 SI         -4.8744   -0.8703    3.0506 Si      1  UNL1        0.0000
      2 C          -5.5147   -0.3002    1.3997 C.2     1  UNL1        0.0000
      3 C          -4.5115   -0.1352    0.5138 C.ar    1  UNL1        0.0000
      4 C          -4.6695    0.1468   -0.8921 C.ar    1  UNL1        0.0000
      5 C          -5.8584    0.4131   -1.6296 C.ar    1  UNL1        0.0000
      6 C          -5.5937    0.5982   -2.9724 C.ar    1  UNL1        0.0000
      7 S          -3.9222    0.4475   -3.3333 S.2     1  UNL1        0.0000
      8 C          -3.5517    0.1424   -1.7078 C.ar    1  UNL1        0.0000
      9 C          -2.2366   -0.0690   -1.1755 C.ar    1  UNL1        0.0000
     10 O          -1.0727   -0.1083   -1.8870 O.2     1  UNL1        0.0000
     11 C          -0.0573   -0.2280   -0.9821 C.ar    1  UNL1        0.0000
     12 C           1.3064   -0.3051   -1.3156 C.ar    1  UNL1        0.0000
     13 C           2.2689   -0.3628   -0.2882 C.ar    1  UNL1        0.0000
     14 C           3.6912   -0.4246   -0.5621 C.ar    1  UNL1        0.0000
     15 S           4.3831   -1.8227   -1.3383 S.2     1  UNL1        0.0000
     16 C           5.9988   -1.1815   -1.3126 C.ar    1  UNL1        0.0000
     17 C           5.9495    0.0366   -0.7376 C.ar    1  UNL1        0.0000
     18 N           6.9942    0.8871   -0.5236 N.ar    1  UNL1        0.0000
     19 C           6.3467    1.9625    0.0832 C.ar    1  UNL1        0.0000
     20 C           4.9599    1.7306    0.2112 C.ar    1  UNL1        0.0000
     21 C           4.6996    0.4462   -0.3331 C.ar    1  UNL1        0.0000
     22 C           1.7330   -0.2839    1.0121 C.ar    1  UNL1        0.0000
     23 C           2.5019   -0.2793    2.1592 C.ar    1  UNL1        0.0000
     24 S           1.5584   -0.0672    3.5854 S.2     1  UNL1        0.0000
     25 C           0.0910    0.0018    2.6898 C.ar    1  UNL1        0.0000
     26 C           0.3506   -0.1985    1.3665 C.ar    1  UNL1        0.0000
     27 C          -0.5985   -0.2304    0.2927 C.ar    1  UNL1        0.0000
     28 C          -1.9962   -0.2515    0.1910 C.ar    1  UNL1        0.0000
     29 C          -3.1302   -0.3900    1.0691 C.ar    1  UNL1        0.0000
     30 C          -3.1497   -0.8605    2.3318 C.2     1  UNL1        0.0000
     31 H          -5.0440    0.1522    4.1097 H       1  UNL1        0.0000
     32 H          -5.3325   -2.2364    3.3962 H       1  UNL1        0.0000
     33 H          -6.5728   -0.2091    1.2142 H       1  UNL1        0.0000
     34 H          -6.8565    0.4642   -1.2136 H       1  UNL1        0.0000
     35 H          -6.2987    0.8124   -3.7639 H       1  UNL1        0.0000
     36 H           1.6037   -0.3038   -2.3603 H       1  UNL1        0.0000
     37 H           6.8442   -1.7243   -1.7107 H       1  UNL1        0.0000
     38 H           7.9701    0.7498   -0.7564 H       1  UNL1        0.0000
     39 H           6.9301    2.8250    0.3793 H       1  UNL1        0.0000
     40 H           4.2467    2.4188    0.6460 H       1  UNL1        0.0000
     41 H           3.5756   -0.3621    2.2600 H       1  UNL1        0.0000
     42 H          -0.8303    0.2121    3.2059 H       1  UNL1        0.0000
     43 H          -2.3315   -1.2425    2.9148 H       1  UNL1        0.0000
@<TRIPOS>BOND
     1     1     2    1
     2     2     3    2
     3     3     4   ar
     4     4     5   ar
     5     5     6   ar
     6     6     7   ar
     7     7     8   ar
     8     8     9   ar
     9     9    10   ar
    10    10    11   ar
    11    11    12   ar
    12    12    13   ar
    13    13    14    1
    14    14    15   ar
    15    15    16   ar
    16    16    17   ar
    17    17    18   ar
    18    18    19   ar
    19    19    20   ar
    20    20    21   ar
    21    13    22   ar
    22    22    23   ar
    23    23    24   ar
    24    24    25   ar
    25    25    26   ar
    26    26    27   ar
    27    27    28   ar
    28    28    29   ar
    29    29    30    2
    30    30     1    1
    31    29     3   ar
    32     8     4   ar
    33    28     9   ar
    34    27    11   ar
    35    21    14   ar
    36    26    22   ar
    37    21    17   ar
    38     1    31    1
    39     1    32    1
    40     2    33    1
    41     5    34    1
    42     6    35    1
    43    12    36    1
    44    16    37    1
    45    18    38    1
    46    19    39    1
    47    20    40    1
    48    23    41    1
    49    25    42    1
    50    30    43    1
