@<TRIPOS>MOLECULE
*****
 35 39 0 0 0
SMALL
GASTEIGER

@<TRIPOS>ATOM
      1 C           5.2029    1.4540   -0.2617 C.ar    1  UNL1       -0.0415
      2 C           4.7252    1.7056    1.0090 C.ar    1  UNL1        0.0284
      3 N           3.5449    1.2386    1.4665 N.ar    1  UNL1       -0.2534
      4 C           2.8039    0.4872    0.6250 C.ar    1  UNL1        0.0897
      5 C           1.5817   -0.0149    1.0452 C.ar    1  UNL1       -0.0251
      6 C           0.7826   -0.7939    0.2008 C.ar    1  UNL1        0.0029
      7 C          -0.5027   -1.3249    0.6404 C.ar    1  UNL1       -0.0066
      8 C          -0.5641   -2.4793    1.4463 C.ar    1  UNL1       -0.0533
      9 C          -1.7828   -3.0076    1.8608 C.ar    1  UNL1       -0.0592
     10 C          -2.9840   -2.4061    1.4883 C.ar    1  UNL1       -0.0377
     11 C          -2.9194   -1.2555    0.6933 C.ar    1  UNL1        0.0481
     12 N          -3.9418   -0.4810    0.1986 N.ar    1  UNL1       -0.3529
     13 C          -3.4532    0.5722   -0.5311 C.ar    1  UNL1        0.0658
     14 C          -4.1250    1.5902   -1.1961 C.ar    1  UNL1        0.0514
     15 N          -3.4130    2.5329   -1.8504 N.ar    1  UNL1       -0.2612
     16 C          -2.0654    2.4592   -1.8347 C.ar    1  UNL1        0.0283
     17 C          -1.3345    1.4710   -1.1914 C.ar    1  UNL1       -0.0338
     18 C          -2.0622    0.4791   -0.5116 C.ar    1  UNL1        0.0109
     19 C          -1.7167   -0.6896    0.2589 C.ar    1  UNL1        0.0152
     20 C           1.2787   -1.0461   -1.0729 C.ar    1  UNL1        0.0361
     21 N           2.4606   -0.5782   -1.5354 N.ar    1  UNL1       -0.2528
     22 C           3.1992    0.1710   -0.6927 C.ar    1  UNL1        0.0892
     23 C           4.4199    0.6762   -1.1114 C.ar    1  UNL1       -0.0328
     24 H           6.1580    1.8498   -0.5875 H       1  UNL1        0.0633
     25 H           5.2927    2.3058    1.7149 H       1  UNL1        0.0830
     26 H           1.2444    0.2142    2.0537 H       1  UNL1        0.0646
     27 H           0.3565   -2.9752    1.7505 H       1  UNL1        0.0624
     28 H          -1.7989   -3.9012    2.4809 H       1  UNL1        0.0618
     29 H          -3.9339   -2.8209    1.8115 H       1  UNL1        0.0638
     30 H          -4.9222   -0.6620    0.3586 H       1  UNL1        0.1659
     31 H          -5.2038    1.6808   -1.2242 H       1  UNL1        0.0851
     32 H          -1.5575    3.2524   -2.3773 H       1  UNL1        0.0830
     33 H          -0.2524    1.4858   -1.2217 H       1  UNL1        0.0639
     34 H           0.7171   -1.6478   -1.7844 H       1  UNL1        0.0836
     35 H           4.7651    0.4580   -2.1184 H       1  UNL1        0.0640
@<TRIPOS>BOND
     1     1     2   ar
     2     2     3   ar
     3     3     4   ar
     4     4     5   ar
     5     5     6   ar
     6     6     7    1
     7     7     8   ar
     8     8     9   ar
     9     9    10   ar
    10    10    11   ar
    11    11    12   ar
    12    12    13   ar
    13    13    14   ar
    14    14    15   ar
    15    15    16   ar
    16    16    17   ar
    17    17    18   ar
    18    18    19   ar
    19     6    20   ar
    20    20    21   ar
    21    21    22   ar
    22    22    23   ar
    23    23     1   ar
    24    22     4   ar
    25    19     7   ar
    26    19    11   ar
    27    18    13   ar
    28     1    24    1
    29     2    25    1
    30     5    26    1
    31     8    27    1
    32     9    28    1
    33    10    29    1
    34    12    30    1
    35    14    31    1
    36    16    32    1
    37    17    33    1
    38    20    34    1
    39    23    35    1
