@<TRIPOS>MOLECULE
*****
 35 39 0 0 0
SMALL
GASTEIGER

@<TRIPOS>ATOM
      1 C           5.2727   -1.1409   -0.5409 C.ar    1  UNL1       -0.0415
      2 C           4.9157   -1.0659    0.7907 C.ar    1  UNL1        0.0284
      3 N           3.7450   -0.5502    1.2195 N.ar    1  UNL1       -0.2534
      4 C           2.8886   -0.0875    0.2846 C.ar    1  UNL1        0.0897
      5 C           1.6710    0.4506    0.6728 C.ar    1  UNL1       -0.0251
      6 C           0.7541    0.9377   -0.2656 C.ar    1  UNL1        0.0030
      7 C          -0.5261    1.5057    0.1411 C.ar    1  UNL1       -0.0050
      8 C          -0.6054    2.7992    0.7011 C.ar    1  UNL1       -0.0532
      9 C          -1.8271    3.3585    1.0796 C.ar    1  UNL1       -0.0577
     10 C          -3.0185    2.6514    0.9163 C.ar    1  UNL1       -0.0187
     11 C          -2.9201    1.3731    0.3699 C.ar    1  UNL1        0.1368
     12 O          -3.9775    0.5484    0.1461 O.2     1  UNL1       -0.4548
     13 C          -3.4821   -0.6029   -0.3788 C.ar    1  UNL1        0.1363
     14 C          -4.2482   -1.7085   -0.7439 C.ar    1  UNL1       -0.0187
     15 C          -3.5571   -2.8076   -1.2608 C.ar    1  UNL1       -0.0582
     16 C          -2.1681   -2.7839   -1.3958 C.ar    1  UNL1       -0.0610
     17 C          -1.4242   -1.6556   -1.0195 C.ar    1  UNL1       -0.0504
     18 C          -2.0980   -0.5308   -0.5005 C.ar    1  UNL1        0.0285
     19 C          -1.7266    0.7688   -0.0199 C.ar    1  UNL1        0.0356
     20 C           1.1296    0.8634   -1.6020 C.ar    1  UNL1        0.0361
     21 N           2.3013    0.3454   -2.0360 N.ar    1  UNL1       -0.2528
     22 C           3.1554   -0.1164   -1.1010 C.ar    1  UNL1        0.0892
     23 C           4.3720   -0.6565   -1.4865 C.ar    1  UNL1       -0.0328
     24 H           6.2249   -1.5635   -0.8406 H       1  UNL1        0.0633
     25 H           5.5782   -1.4279    1.5721 H       1  UNL1        0.0830
     26 H           1.4331    0.4823    1.7339 H       1  UNL1        0.0646
     27 H           0.3042    3.3832    0.8386 H       1  UNL1        0.0624
     28 H          -1.8523    4.3594    1.5056 H       1  UNL1        0.0619
     29 H          -3.9774    3.0673    1.2019 H       1  UNL1        0.0654
     30 H          -5.3252   -1.7096   -0.6276 H       1  UNL1        0.0654
     31 H          -4.1111   -3.6951   -1.5591 H       1  UNL1        0.0619
     32 H          -1.6515   -3.6536   -1.7972 H       1  UNL1        0.0618
     33 H          -0.3439   -1.6659   -1.1286 H       1  UNL1        0.0625
     34 H           0.4742    1.2270   -2.3907 H       1  UNL1        0.0836
     35 H           4.6205   -0.6992   -2.5436 H       1  UNL1        0.0640
@<TRIPOS>BOND
     1     1     2   ar
     2     2     3   ar
     3     3     4   ar
     4     4     5   ar
     5     5     6   ar
     6     6     7    1
     7     7     8   ar
     8     8     9   ar
     9     9    10   ar
    10    10    11   ar
    11    11    12   ar
    12    12    13   ar
    13    13    14   ar
    14    14    15   ar
    15    15    16   ar
    16    16    17   ar
    17    17    18   ar
    18    18    19   ar
    19     6    20   ar
    20    20    21   ar
    21    21    22   ar
    22    22    23   ar
    23    23     1   ar
    24    22     4   ar
    25    19     7   ar
    26    19    11   ar
    27    18    13   ar
    28     1    24    1
    29     2    25    1
    30     5    26    1
    31     8    27    1
    32     9    28    1
    33    10    29    1
    34    14    30    1
    35    15    31    1
    36    16    32    1
    37    17    33    1
    38    20    34    1
    39    23    35    1
