@<TRIPOS>MOLECULE
*****
 34 38 0 0 0
SMALL
GASTEIGER

@<TRIPOS>ATOM
      1 C          -5.1044    1.1421   -0.4967 C.ar    1  UNL1       -0.0415
      2 C          -4.7222    0.3130   -1.5324 C.ar    1  UNL1        0.0284
      3 N          -3.5511   -0.3569   -1.5560 N.ar    1  UNL1       -0.2534
      4 C          -2.7217   -0.1983   -0.5035 C.ar    1  UNL1        0.0897
      5 C          -1.5055   -0.8640   -0.4799 C.ar    1  UNL1       -0.0251
      6 C          -0.6153   -0.7228    0.5906 C.ar    1  UNL1        0.0030
      7 C           0.6655   -1.4192    0.6152 C.ar    1  UNL1       -0.0050
      8 C           0.7457   -2.7929    0.9280 C.ar    1  UNL1       -0.0532
      9 C           1.9698   -3.4632    0.9659 C.ar    1  UNL1       -0.0577
     10 C           3.1620   -2.7921    0.6925 C.ar    1  UNL1       -0.0186
     11 C           3.0627   -1.4380    0.3778 C.ar    1  UNL1        0.1388
     12 O           4.1195   -0.6379    0.0826 O.2     1  UNL1       -0.4368
     13 C           3.6271    0.6019   -0.1781 C.ar    1  UNL1        0.2284
     14 N           4.4164    1.6401   -0.5113 N.ar    1  UNL1       -0.2205
     15 C           3.7296    2.7794   -0.7373 C.ar    1  UNL1        0.0314
     16 C           2.3520    2.9245   -0.6509 C.ar    1  UNL1       -0.0428
     17 C           1.5742    1.8203   -0.3007 C.ar    1  UNL1       -0.0474
     18 C           2.2380    0.6054   -0.0493 C.ar    1  UNL1        0.0482
     19 C           1.8669   -0.7259    0.3239 C.ar    1  UNL1        0.0373
     20 C          -1.0157    0.1086    1.6304 C.ar    1  UNL1        0.0361
     21 N          -2.1862    0.7854    1.6557 N.ar    1  UNL1       -0.2528
     22 C          -3.0151    0.6247    0.6048 C.ar    1  UNL1        0.0892
     23 C          -4.2303    1.2903    0.5776 C.ar    1  UNL1       -0.0328
     24 H          -6.0560    1.6610   -0.5193 H       1  UNL1        0.0633
     25 H          -5.3634    0.1591   -2.3960 H       1  UNL1        0.0830
     26 H          -1.2479   -1.5024   -1.3224 H       1  UNL1        0.0646
     27 H          -0.1644   -3.3491    1.1514 H       1  UNL1        0.0624
     28 H           1.9964   -4.5226    1.2133 H       1  UNL1        0.0619
     29 H           4.1227   -3.2935    0.7176 H       1  UNL1        0.0654
     30 H           4.3503    3.6308   -1.0092 H       1  UNL1        0.0831
     31 H           1.8878    3.8842   -0.8547 H       1  UNL1        0.0633
     32 H           0.4949    1.9094   -0.2327 H       1  UNL1        0.0626
     33 H          -0.3829    0.2638    2.5017 H       1  UNL1        0.0836
     34 H          -4.4995    1.9346    1.4104 H       1  UNL1        0.0640
@<TRIPOS>BOND
     1     1     2   ar
     2     2     3   ar
     3     3     4   ar
     4     4     5   ar
     5     5     6   ar
     6     6     7    1
     7     7     8   ar
     8     8     9   ar
     9     9    10   ar
    10    10    11   ar
    11    11    12   ar
    12    12    13   ar
    13    13    14   ar
    14    14    15   ar
    15    15    16   ar
    16    16    17   ar
    17    17    18   ar
    18    18    19   ar
    19     6    20   ar
    20    20    21   ar
    21    21    22   ar
    22    22    23   ar
    23    23     1   ar
    24    22     4   ar
    25    19     7   ar
    26    19    11   ar
    27    18    13   ar
    28     1    24    1
    29     2    25    1
    30     5    26    1
    31     8    27    1
    32     9    28    1
    33    10    29    1
    34    15    30    1
    35    16    31    1
    36    17    32    1
    37    20    33    1
    38    23    34    1
