@<TRIPOS>MOLECULE
*****
 34 38 0 0 0
SMALL
GASTEIGER

@<TRIPOS>ATOM
      1 C          -4.9611   -1.3840   -0.0727 C.ar    1  UNL1       -0.0415
      2 C          -4.6244   -0.7698   -1.2625 C.ar    1  UNL1        0.0284
      3 N          -3.4775   -0.0833   -1.4471 N.ar    1  UNL1       -0.2534
      4 C          -2.6264   -0.0005   -0.4033 C.ar    1  UNL1        0.0897
      5 C          -1.4337    0.6928   -0.5418 C.ar    1  UNL1       -0.0251
      6 C          -0.5212    0.7946    0.5151 C.ar    1  UNL1        0.0029
      7 C           0.7306    1.5330    0.3752 C.ar    1  UNL1       -0.0075
      8 C           0.7353    2.9242    0.6040 C.ar    1  UNL1       -0.0533
      9 C           1.8999    3.6649    0.4940 C.ar    1  UNL1       -0.0601
     10 C           3.0932    3.0381    0.1531 C.ar    1  UNL1       -0.0473
     11 C           3.1018    1.6477   -0.0824 C.ar    1  UNL1        0.0225
     12 S           4.4840    0.7214   -0.5101 S.2     1  UNL1       -0.0687
     13 C           3.5935   -0.7148   -0.5853 C.ar    1  UNL1        0.1093
     14 N           4.2126   -1.8711   -0.9070 N.ar    1  UNL1       -0.2478
     15 C           3.4032   -2.9443   -0.9410 C.ar    1  UNL1        0.0289
     16 C           2.0485   -2.9255   -0.6791 C.ar    1  UNL1       -0.0429
     17 C           1.4516   -1.7102   -0.3499 C.ar    1  UNL1       -0.0500
     18 C           2.2451   -0.5373   -0.2928 C.ar    1  UNL1        0.0160
     19 C           1.9442    0.8611    0.0144 C.ar    1  UNL1        0.0062
     20 C          -0.8758    0.1800    1.7105 C.ar    1  UNL1        0.0361
     21 N          -2.0226   -0.5118    1.8974 N.ar    1  UNL1       -0.2528
     22 C          -2.8733   -0.5915    0.8545 C.ar    1  UNL1        0.0892
     23 C          -4.0652   -1.2855    0.9894 C.ar    1  UNL1       -0.0328
     24 H          -5.8945   -1.9254    0.0313 H       1  UNL1        0.0633
     25 H          -5.2844   -0.8129   -2.1246 H       1  UNL1        0.0830
     26 H          -1.2122    1.1596   -1.4992 H       1  UNL1        0.0646
     27 H          -0.1897    3.4327    0.8738 H       1  UNL1        0.0624
     28 H           1.8839    4.7371    0.6748 H       1  UNL1        0.0618
     29 H           4.0097    3.6172    0.0677 H       1  UNL1        0.0629
     30 H           3.8987   -3.8770   -1.2007 H       1  UNL1        0.0830
     31 H           1.4618   -3.8365   -0.7293 H       1  UNL1        0.0633
     32 H           0.3864   -1.6897   -0.1468 H       1  UNL1        0.0625
     33 H          -0.2233    0.2230    2.5799 H       1  UNL1        0.0836
     34 H          -4.2986   -1.7564    1.9406 H       1  UNL1        0.0640
@<TRIPOS>BOND
     1     1     2   ar
     2     2     3   ar
     3     3     4   ar
     4     4     5   ar
     5     5     6   ar
     6     6     7    1
     7     7     8   ar
     8     8     9   ar
     9     9    10   ar
    10    10    11   ar
    11    11    12   ar
    12    12    13   ar
    13    13    14   ar
    14    14    15   ar
    15    15    16   ar
    16    16    17   ar
    17    17    18   ar
    18    18    19   ar
    19     6    20   ar
    20    20    21   ar
    21    21    22   ar
    22    22    23   ar
    23    23     1   ar
    24    22     4   ar
    25    19     7   ar
    26    19    11   ar
    27    18    13   ar
    28     1    24    1
    29     2    25    1
    30     5    26    1
    31     8    27    1
    32     9    28    1
    33    10    29    1
    34    15    30    1
    35    16    31    1
    36    17    32    1
    37    20    33    1
    38    23    34    1
