@<TRIPOS>MOLECULE
*****
 23 25 0 0 0
SMALL
GASTEIGER

@<TRIPOS>ATOM
      1 C           4.1727   -0.0884   -0.0572 C.ar    1  UNL1        0.0464
      2 C           3.6980   -0.1009    1.2378 C.ar    1  UNL1        0.0464
      3 N           2.3777   -0.0859    1.5215 N.ar    1  UNL1       -0.2519
      4 C           1.5375   -0.0582    0.4672 C.ar    1  UNL1        0.0897
      5 C           0.1642   -0.0424    0.6857 C.ar    1  UNL1       -0.0264
      6 C          -0.7537   -0.0130   -0.3731 C.ar    1  UNL1       -0.0128
      7 C          -2.1869    0.0010   -0.1317 C.ar    1  UNL1        0.0194
      8 C          -3.2673   -0.4301   -0.9387 C.ar    1  UNL1        0.0568
      9 N          -4.4563   -0.2329   -0.3633 N.ar    1  UNL1       -0.1817
     10 N          -4.1448    0.3267    0.8158 N.ar    1  UNL1       -0.2841
     11 C          -2.8021    0.4906    1.0018 C.ar    1  UNL1        0.0300
     12 C          -0.2595   -0.0040   -1.6792 C.ar    1  UNL1       -0.0518
     13 C           1.1191   -0.0195   -1.9105 C.ar    1  UNL1       -0.0337
     14 C           2.0268   -0.0462   -0.8621 C.ar    1  UNL1        0.0892
     15 N           3.3483   -0.0607   -1.1261 N.ar    1  UNL1       -0.2519
     16 H           5.2345   -0.1006   -0.2742 H       1  UNL1        0.0845
     17 H           4.3683   -0.1235    2.0892 H       1  UNL1        0.0845
     18 H          -0.1809   -0.0660    1.7164 H       1  UNL1        0.0645
     19 H          -3.2371   -0.8843   -1.9207 H       1  UNL1        0.0854
     20 H          -4.9010    0.5758    1.4452 H       1  UNL1        0.1882
     21 H          -2.4214    0.9428    1.9064 H       1  UNL1        0.0830
     22 H          -0.9300    0.0279   -2.5348 H       1  UNL1        0.0624
     23 H           1.4935   -0.0082   -2.9314 H       1  UNL1        0.0640
@<TRIPOS>BOND
     1     1     2   ar
     2     2     3   ar
     3     3     4   ar
     4     4     5   ar
     5     5     6   ar
     6     6     7    1
     7     7     8   ar
     8     8     9   ar
     9     9    10   ar
    10    10    11   ar
    11     6    12   ar
    12    12    13   ar
    13    13    14   ar
    14    14    15   ar
    15    15     1   ar
    16    14     4   ar
    17    11     7   ar
    18     1    16    1
    19     2    17    1
    20     5    18    1
    21     8    19    1
    22    10    20    1
    23    11    21    1
    24    12    22    1
    25    13    23    1
