@<TRIPOS>MOLECULE
*****
 23 25 0 0 0
SMALL
GASTEIGER

@<TRIPOS>ATOM
      1 C           4.0619   -0.1462    0.6884 C.ar    1  UNL1       -0.0415
      2 C           3.6021   -1.3108    0.1064 C.ar    1  UNL1        0.0284
      3 N           2.3111   -1.5167   -0.2280 N.ar    1  UNL1       -0.2534
      4 C           1.4353   -0.5215    0.0263 C.ar    1  UNL1        0.0897
      5 C           0.0967   -0.6844   -0.3006 C.ar    1  UNL1       -0.0250
      6 C          -0.8431    0.3214   -0.0533 C.ar    1  UNL1        0.0052
      7 C          -2.2468    0.1696   -0.3918 C.ar    1  UNL1        0.0208
      8 C          -3.2588    1.1368   -0.6053 C.ar    1  UNL1        0.0569
      9 N          -4.4449    0.5928   -0.8877 N.ar    1  UNL1       -0.1817
     10 N          -4.2016   -0.7261   -0.8584 N.ar    1  UNL1       -0.2841
     11 C          -2.9035   -1.0316   -0.5641 C.ar    1  UNL1        0.0301
     12 C          -0.3671    1.4883    0.5319 C.ar    1  UNL1        0.0362
     13 N           0.9270    1.7007    0.8694 N.ar    1  UNL1       -0.2528
     14 C           1.8008    0.7069    0.6167 C.ar    1  UNL1        0.0892
     15 C           3.1389    0.8658    0.9406 C.ar    1  UNL1       -0.0328
     16 H           5.1090   -0.0237    0.9407 H       1  UNL1        0.0633
     17 H           4.2765   -2.1338   -0.1136 H       1  UNL1        0.0830
     18 H          -0.1984   -1.6197   -0.7679 H       1  UNL1        0.0646
     19 H          -3.1829    2.2163   -0.5716 H       1  UNL1        0.0854
     20 H          -4.9701   -1.3622   -1.0456 H       1  UNL1        0.1882
     21 H          -2.5819   -2.0612   -0.4983 H       1  UNL1        0.0830
     22 H          -1.0258    2.3198    0.7686 H       1  UNL1        0.0836
     23 H           3.4657    1.7962    1.3973 H       1  UNL1        0.0640
@<TRIPOS>BOND
     1     1     2   ar
     2     2     3   ar
     3     3     4   ar
     4     4     5   ar
     5     5     6   ar
     6     6     7    1
     7     7     8   ar
     8     8     9   ar
     9     9    10   ar
    10    10    11   ar
    11     6    12   ar
    12    12    13   ar
    13    13    14   ar
    14    14    15   ar
    15    15     1   ar
    16    14     4   ar
    17    11     7   ar
    18     1    16    1
    19     2    17    1
    20     5    18    1
    21     8    19    1
    22    10    20    1
    23    11    21    1
    24    12    22    1
    25    15    23    1
