@<TRIPOS>MOLECULE
*****
 32 36 0 0 0
SMALL
GASTEIGER

@<TRIPOS>ATOM
      1 C          -5.4338    1.1993    0.7097 C.ar    1  UNL1       -0.0429
      2 C          -4.6222    2.3109    0.8449 C.ar    1  UNL1        0.0283
      3 N          -3.2767    2.2982    0.6798 N.ar    1  UNL1       -0.2549
      4 C          -2.6790    1.1403    0.3649 C.ar    1  UNL1        0.0737
      5 C          -1.2854    1.1383    0.1964 C.ar    1  UNL1       -0.0258
      6 C          -0.4873    0.0105   -0.1352 C.ar    1  UNL1        0.0138
      7 C           0.9659    0.0871   -0.3027 C.ar    1  UNL1        0.0030
      8 C           1.5623    1.0669   -1.0946 C.ar    1  UNL1        0.0360
      9 N           2.8980    1.2127   -1.2877 N.ar    1  UNL1       -0.2543
     10 C           3.7207    0.3447   -0.6759 C.ar    1  UNL1        0.0739
     11 C           5.0877    0.4577   -0.8505 C.ar    1  UNL1       -0.0176
     12 C           5.9302   -0.4392   -0.2167 C.ar    1  UNL1        0.0296
     13 N           5.4983   -1.4383    0.5773 N.ar    1  UNL1       -0.2625
     14 C           4.1614   -1.5394    0.7391 C.ar    1  UNL1        0.0367
     15 C           3.2337   -0.6834    0.1441 C.ar    1  UNL1        0.0191
     16 C           1.8440   -0.8007    0.3269 C.ar    1  UNL1       -0.0419
     17 C          -1.2121   -1.2051   -0.3031 C.ar    1  UNL1        0.1083
     18 N          -0.7077   -2.4096   -0.6250 N.ar    1  UNL1       -0.1901
     19 S          -1.9789   -3.4677   -0.7015 S.2     1  UNL1        0.1165
     20 N          -3.2380   -2.4597   -0.3240 N.ar    1  UNL1       -0.1901
     21 C          -2.7124   -1.2365   -0.1293 C.ar    1  UNL1        0.1096
     22 C          -3.4345   -0.0452    0.2078 C.ar    1  UNL1        0.0286
     23 C          -4.8310   -0.0059    0.3843 C.ar    1  UNL1       -0.0490
     24 H          -6.5058    1.2715    0.8540 H       1  UNL1        0.0633
     25 H          -5.0434    3.2804    1.0991 H       1  UNL1        0.0830
     26 H          -0.7831    2.0970    0.3500 H       1  UNL1        0.0646
     27 H           0.9611    1.7979   -1.6317 H       1  UNL1        0.0836
     28 H           5.4924    1.2426   -1.4792 H       1  UNL1        0.0654
     29 H           7.0079   -0.3730   -0.3370 H       1  UNL1        0.0830
     30 H           3.8445   -2.3560    1.3824 H       1  UNL1        0.0836
     31 H           1.4543   -1.5912    0.9656 H       1  UNL1        0.0631
     32 H          -5.4310   -0.9050    0.2679 H       1  UNL1        0.0625
@<TRIPOS>BOND
     1     1     2   ar
     2     2     3   ar
     3     3     4   ar
     4     4     5   ar
     5     5     6   ar
     6     6     7    1
     7     7     8   ar
     8     8     9   ar
     9     9    10   ar
    10    10    11   ar
    11    11    12   ar
    12    12    13   ar
    13    13    14   ar
    14    14    15   ar
    15    15    16   ar
    16     6    17   ar
    17    17    18   ar
    18    18    19   ar
    19    19    20   ar
    20    20    21   ar
    21    21    22   ar
    22    22    23   ar
    23    23     1   ar
    24    22     4   ar
    25    16     7   ar
    26    21    17   ar
    27    15    10   ar
    28     1    24    1
    29     2    25    1
    30     5    26    1
    31     8    27    1
    32    11    28    1
    33    12    29    1
    34    14    30    1
    35    16    31    1
    36    23    32    1
