@<TRIPOS>MOLECULE
*****
 33 37 0 0 0
SMALL
GASTEIGER

@<TRIPOS>ATOM
      1 C           6.1419   -0.1113    1.0554 C.ar    1  UNL1       -0.0415
      2 C           5.7200    1.1753    1.3259 C.ar    1  UNL1        0.0284
      3 N           4.4704    1.6173    1.0727 N.ar    1  UNL1       -0.2534
      4 C           3.6000    0.7436    0.5257 C.ar    1  UNL1        0.0897
      5 C           2.3026    1.1496    0.2466 C.ar    1  UNL1       -0.0250
      6 C           1.3610    0.2800   -0.3211 C.ar    1  UNL1        0.0037
      7 C          -0.0120    0.7060   -0.6159 C.ar    1  UNL1        0.0024
      8 C          -0.2833    1.8700   -1.3341 C.ar    1  UNL1        0.0366
      9 N          -1.5050    2.3489   -1.6587 N.ar    1  UNL1       -0.2472
     10 C          -2.5294    1.5896   -1.2198 C.ar    1  UNL1        0.1107
     11 S          -4.1374    2.0410   -1.5366 S.2     1  UNL1       -0.0490
     12 C          -4.7395    0.6796   -0.7146 C.ar    1  UNL1        0.1107
     13 N          -6.0698    0.4699   -0.6176 N.ar    1  UNL1       -0.2478
     14 C          -6.4056   -0.6446    0.0606 C.ar    1  UNL1        0.0289
     15 C          -5.5133   -1.5353    0.6302 C.ar    1  UNL1       -0.0429
     16 C          -4.1488   -1.2834    0.5072 C.ar    1  UNL1       -0.0500
     17 C          -3.7331   -0.1289   -0.1936 C.ar    1  UNL1        0.0169
     18 C          -2.4292    0.4080   -0.4943 C.ar    1  UNL1        0.0175
     19 C          -1.1212   -0.0385   -0.1890 C.ar    1  UNL1       -0.0422
     20 C           1.8059   -1.0115   -0.5882 C.ar    1  UNL1        0.0361
     21 N           3.0561   -1.4621   -0.3342 N.ar    1  UNL1       -0.2528
     22 C           3.9277   -0.5914    0.2111 C.ar    1  UNL1        0.0892
     23 C           5.2240   -0.9942    0.4915 C.ar    1  UNL1       -0.0328
     24 H           7.1564   -0.4238    1.2751 H       1  UNL1        0.0633
     25 H           6.3922    1.9071    1.7655 H       1  UNL1        0.0830
     26 H           2.0269    2.1726    0.4956 H       1  UNL1        0.0646
     27 H           0.5324    2.4906   -1.7042 H       1  UNL1        0.0836
     28 H          -7.4768   -0.8168    0.1415 H       1  UNL1        0.0830
     29 H          -5.8720   -2.4107    1.1611 H       1  UNL1        0.0633
     30 H          -3.4241   -1.9639    0.9440 H       1  UNL1        0.0625
     31 H          -0.9896   -0.9497    0.3890 H       1  UNL1        0.0631
     32 H           1.1507   -1.7524   -1.0416 H       1  UNL1        0.0836
     33 H           5.5219   -2.0144    0.2651 H       1  UNL1        0.0640
@<TRIPOS>BOND
     1     1     2   ar
     2     2     3   ar
     3     3     4   ar
     4     4     5   ar
     5     5     6   ar
     6     6     7    1
     7     7     8   ar
     8     8     9   ar
     9     9    10   ar
    10    10    11   ar
    11    11    12   ar
    12    12    13   ar
    13    13    14   ar
    14    14    15   ar
    15    15    16   ar
    16    16    17   ar
    17    17    18   ar
    18    18    19   ar
    19     6    20   ar
    20    20    21   ar
    21    21    22   ar
    22    22    23   ar
    23    23     1   ar
    24    22     4   ar
    25    19     7   ar
    26    18    10   ar
    27    17    12   ar
    28     1    24    1
    29     2    25    1
    30     5    26    1
    31     8    27    1
    32    14    28    1
    33    15    29    1
    34    16    30    1
    35    19    31    1
    36    20    32    1
    37    23    33    1
