@<TRIPOS>MOLECULE
*****
 34 38 0 0 0
SMALL
GASTEIGER

@<TRIPOS>ATOM
      1 C          -5.6026    0.2401   -0.8389 C.ar    1  UNL1       -0.0415
      2 C          -4.8156   -0.4307   -1.7540 C.ar    1  UNL1        0.0284
      3 N          -3.5238   -0.7517   -1.5308 N.ar    1  UNL1       -0.2534
      4 C          -2.9915   -0.3956   -0.3437 C.ar    1  UNL1        0.0897
      5 C          -1.6692   -0.7073   -0.0644 C.ar    1  UNL1       -0.0250
      6 C          -1.0670   -0.3467    1.1482 C.ar    1  UNL1        0.0057
      7 C           0.3267   -0.6636    1.4409 C.ar    1  UNL1        0.0256
      8 C           0.7282   -1.4202    2.5439 C.ar    1  UNL1        0.0373
      9 N           2.0043   -1.7373    2.8631 N.ar    1  UNL1       -0.2619
     10 C           3.0042   -1.3016    2.0612 C.ar    1  UNL1        0.0374
     11 C           2.7243   -0.5302    0.9263 C.ar    1  UNL1        0.0275
     12 C           1.3917   -0.2244    0.6378 C.ar    1  UNL1        0.0583
     13 N           1.4008    0.5502   -0.5032 N.ar    1  UNL1       -0.3535
     14 C           2.6810    0.7347   -0.9651 C.ar    1  UNL1        0.0504
     15 C           3.1514    1.4324   -2.0755 C.ar    1  UNL1       -0.0196
     16 C           4.5280    1.4124   -2.2386 C.ar    1  UNL1        0.0295
     17 N           5.3962    0.7832   -1.4166 N.ar    1  UNL1       -0.2625
     18 C           4.9128    0.1115   -0.3424 C.ar    1  UNL1        0.0373
     19 C           3.5356    0.0691   -0.0884 C.ar    1  UNL1        0.0269
     20 C          -1.8721    0.3292    2.0587 C.ar    1  UNL1        0.0362
     21 N          -3.1669    0.6544    1.8399 N.ar    1  UNL1       -0.2528
     22 C          -3.7052    0.2938    0.6584 C.ar    1  UNL1        0.0892
     23 C          -5.0270    0.6013    0.3770 C.ar    1  UNL1       -0.0328
     24 H          -6.6371    0.4776   -1.0603 H       1  UNL1        0.0633
     25 H          -5.2117   -0.7377   -2.7181 H       1  UNL1        0.0830
     26 H          -1.1042   -1.2594   -0.8131 H       1  UNL1        0.0646
     27 H          -0.0095   -1.8228    3.2361 H       1  UNL1        0.0836
     28 H           4.0101   -1.5814    2.3537 H       1  UNL1        0.0836
     29 H           0.5742    0.9321   -0.9417 H       1  UNL1        0.1659
     30 H           2.4998    1.9537   -2.7645 H       1  UNL1        0.0653
     31 H           4.9896    1.9286   -3.0770 H       1  UNL1        0.0830
     32 H           5.6477   -0.3767    0.2875 H       1  UNL1        0.0836
     33 H          -1.4861    0.6522    3.0237 H       1  UNL1        0.0836
     34 H          -5.6172    1.1306    1.1203 H       1  UNL1        0.0640
@<TRIPOS>BOND
     1     1     2   ar
     2     2     3   ar
     3     3     4   ar
     4     4     5   ar
     5     5     6   ar
     6     6     7    1
     7     7     8   ar
     8     8     9   ar
     9     9    10   ar
    10    10    11   ar
    11    11    12   ar
    12    12    13   ar
    13    13    14   ar
    14    14    15   ar
    15    15    16   ar
    16    16    17   ar
    17    17    18   ar
    18    18    19   ar
    19     6    20   ar
    20    20    21   ar
    21    21    22   ar
    22    22    23   ar
    23    23     1   ar
    24    22     4   ar
    25    12     7   ar
    26    19    14   ar
    27    19    11   ar
    28     1    24    1
    29     2    25    1
    30     5    26    1
    31     8    27    1
    32    10    28    1
    33    13    29    1
    34    15    30    1
    35    16    31    1
    36    18    32    1
    37    20    33    1
    38    23    34    1
