@<TRIPOS>MOLECULE
*****
 30 34 0 0 0
SMALL
GASTEIGER

@<TRIPOS>ATOM
      1 C           6.0910   -0.1910   -0.1704 C.ar    1  UNL1        0.0464
      2 C           5.6157   -1.0164    0.8272 C.ar    1  UNL1        0.0464
      3 N           4.2962   -1.1570    1.0777 N.ar    1  UNL1       -0.2519
      4 C           3.4575   -0.4454    0.2988 C.ar    1  UNL1        0.0899
      5 C           2.0856   -0.5416    0.5007 C.ar    1  UNL1       -0.0220
      6 C           1.1674    0.1757   -0.2799 C.ar    1  UNL1        0.0391
      7 C          -0.2635    0.0355   -0.0226 C.ar    1  UNL1        0.2285
      8 N          -0.8742   -0.7062    0.8859 N.ar    1  UNL1       -0.2088
      9 C          -2.2044   -0.4544    0.6775 C.ar    1  UNL1        0.1135
     10 C          -3.3518   -0.9342    1.3141 C.ar    1  UNL1        0.0120
     11 C          -4.5779   -0.4735    0.8542 C.ar    1  UNL1        0.1573
     12 O          -5.8229   -0.7930    1.3094 O.2     1  UNL1       -0.4424
     13 C          -6.6516   -0.0630    0.5082 C.ar    1  UNL1        0.1831
     14 N          -6.0564    0.6802   -0.4010 N.ar    1  UNL1       -0.2160
     15 C          -4.7253    0.4283   -0.1925 C.ar    1  UNL1        0.1129
     16 C          -3.5773    0.9075   -0.8284 C.ar    1  UNL1        0.0120
     17 C          -2.3516    0.4463   -0.3679 C.ar    1  UNL1        0.1580
     18 O          -1.1084    0.7662   -0.8235 O.2     1  UNL1       -0.4352
     19 C           1.6640    1.0079   -1.2869 C.ar    1  UNL1       -0.0474
     20 C           3.0418    1.1128   -1.4994 C.ar    1  UNL1       -0.0335
     21 C           3.9477    0.4019   -0.7255 C.ar    1  UNL1        0.0892
     22 N           5.2680    0.5301   -0.9616 N.ar    1  UNL1       -0.2519
     23 H           7.1522   -0.0850   -0.3637 H       1  UNL1        0.0845
     24 H           6.2843   -1.5914    1.4572 H       1  UNL1        0.0845
     25 H           1.7267   -1.1979    1.2927 H       1  UNL1        0.0647
     26 H          -3.2845   -1.6385    2.1347 H       1  UNL1        0.0677
     27 H          -7.7117   -0.1638    0.6952 H       1  UNL1        0.1255
     28 H          -3.6448    1.6118   -1.6489 H       1  UNL1        0.0677
     29 H           0.9907    1.5845   -1.9184 H       1  UNL1        0.0626
     30 H           3.4174    1.7634   -2.2858 H       1  UNL1        0.0640
@<TRIPOS>BOND
     1     1     2   ar
     2     2     3   ar
     3     3     4   ar
     4     4     5   ar
     5     5     6   ar
     6     6     7    1
     7     7     8   ar
     8     8     9   ar
     9     9    10   ar
    10    10    11   ar
    11    11    12   ar
    12    12    13   ar
    13    13    14   ar
    14    14    15   ar
    15    15    16   ar
    16    16    17   ar
    17    17    18   ar
    18     6    19   ar
    19    19    20   ar
    20    20    21   ar
    21    21    22   ar
    22    22     1   ar
    23    21     4   ar
    24    18     7   ar
    25    17     9   ar
    26    15    11   ar
    27     1    23    1
    28     2    24    1
    29     5    25    1
    30    10    26    1
    31    13    27    1
    32    16    28    1
    33    19    29    1
    34    20    30    1
