@<TRIPOS>MOLECULE
*****
 36 41 0 0 0
SMALL
GASTEIGER

@<TRIPOS>ATOM
      1 SI         -6.0049    0.1396   -1.4230 Si      1  UNL1        0.0000
      2 C          -5.8538    0.1010    0.4452 C.2     1  UNL1        0.0000
      3 C          -4.5596    0.0696    0.8179 C.ar    1  UNL1        0.0000
      4 C          -4.0946    0.0343    2.2079 C.ar    1  UNL1        0.0000
      5 C          -2.7731    0.0040    2.4895 C.ar    1  UNL1        0.0000
      6 C          -1.8902    0.0087    1.3777 C.ar    1  UNL1        0.0000
      7 N          -0.5301   -0.0189    1.4860 N.ar    1  UNL1        0.0000
      8 C           0.0331   -0.0053    0.2221 C.ar    1  UNL1        0.0000
      9 C          -1.0073    0.0317   -0.6979 C.ar    1  UNL1        0.0000
     10 C          -2.2097    0.0403    0.0352 C.ar    1  UNL1        0.0000
     11 C          -3.5897    0.0730   -0.3195 C.ar    1  UNL1        0.0000
     12 C          -4.1400    0.1068   -1.5464 C.2     1  UNL1        0.0000
     13 C           1.4499   -0.0278    0.0143 C.ar    1  UNL1        0.0000
     14 C           2.4856   -0.0640    0.9345 C.ar    1  UNL1        0.0000
     15 C           3.6560   -0.0715    0.1737 C.ar    1  UNL1        0.0000
     16 C           3.3909   -0.0416   -1.1792 C.ar    1  UNL1        0.0000
     17 C           4.3805   -0.0414   -2.1783 C.ar    1  UNL1        0.0000
     18 C           5.7380   -0.0734   -1.8022 C.ar    1  UNL1        0.0000
     19 C           6.0315   -0.1045   -0.4171 C.ar    1  UNL1        0.0000
     20 N           7.2605   -0.1374    0.1354 N.ar    1  UNL1        0.0000
     21 S           7.0369   -0.1640    1.7989 S.2     1  UNL1        0.0000
     22 N           5.3606   -0.1349    1.8942 N.ar    1  UNL1        0.0000
     23 C           5.0115   -0.1048    0.6176 C.ar    1  UNL1        0.0000
     24 N           2.0130   -0.0148   -1.2504 N.ar    1  UNL1        0.0000
     25 H          -6.5830    1.4133   -1.9154 H       1  UNL1        0.0000
     26 H          -6.6302   -1.0918   -1.9632 H       1  UNL1        0.0000
     27 H          -6.7224    0.1052    1.0834 H       1  UNL1        0.0000
     28 H          -4.8322    0.0330    3.0028 H       1  UNL1        0.0000
     29 H          -2.4089   -0.0223    3.5101 H       1  UNL1        0.0000
     30 H          -0.0073   -0.0452    2.3494 H       1  UNL1        0.0000
     31 H          -0.9132    0.0505   -1.7742 H       1  UNL1        0.0000
     32 H          -3.6274    0.1152   -2.4939 H       1  UNL1        0.0000
     33 H           2.4040   -0.0824    2.0126 H       1  UNL1        0.0000
     34 H           4.1103   -0.0169   -3.2310 H       1  UNL1        0.0000
     35 H           6.5323   -0.0744   -2.5399 H       1  UNL1        0.0000
     36 H           1.4830    0.0109   -2.1092 H       1  UNL1        0.0000
@<TRIPOS>BOND
     1     1     2    1
     2     2     3    2
     3     3     4   ar
     4     4     5   ar
     5     5     6   ar
     6     6     7   ar
     7     7     8   ar
     8     8     9   ar
     9     9    10   ar
    10    10    11   ar
    11    11    12    2
    12     8    13    1
    13    13    14   ar
    14    14    15   ar
    15    15    16   ar
    16    16    17   ar
    17    17    18   ar
    18    18    19   ar
    19    19    20   ar
    20    20    21   ar
    21    21    22   ar
    22    22    23   ar
    23    16    24   ar
    24    12     1    1
    25    24    13   ar
    26    11     3   ar
    27    23    15   ar
    28    10     6   ar
    29    23    19   ar
    30     1    25    1
    31     1    26    1
    32     2    27    1
    33     4    28    1
    34     5    29    1
    35     7    30    1
    36     9    31    1
    37    12    32    1
    38    14    33    1
    39    17    34    1
    40    18    35    1
    41    24    36    1
