@<TRIPOS>MOLECULE
*****
 30 34 0 0 0
SMALL
GASTEIGER

@<TRIPOS>ATOM
      1 C          -6.0626    0.2205    0.2126 C.ar    1  UNL1       -0.0415
      2 C          -5.6009   -1.0701    0.0468 C.ar    1  UNL1        0.0284
      3 N          -4.2912   -1.3913   -0.0020 N.ar    1  UNL1       -0.2534
      4 C          -3.3980   -0.3874    0.1191 C.ar    1  UNL1        0.0899
      5 C          -2.0403   -0.6656    0.0755 C.ar    1  UNL1       -0.0205
      6 C          -1.0826    0.3468    0.1972 C.ar    1  UNL1        0.0570
      7 C           0.3368    0.0347    0.1489 C.ar    1  UNL1        0.2299
      8 N           0.9234   -1.1405   -0.0031 N.ar    1  UNL1       -0.2088
      9 C           2.2616   -0.8482    0.0253 C.ar    1  UNL1        0.1135
     10 C           3.3929   -1.6606   -0.0844 C.ar    1  UNL1        0.0120
     11 C           4.6334   -1.0417   -0.0141 C.ar    1  UNL1        0.1573
     12 O           5.8676   -1.6159   -0.0943 O.2     1  UNL1       -0.4424
     13 C           6.7196   -0.5579    0.0339 C.ar    1  UNL1        0.1831
     14 N           6.1486    0.6186    0.1860 N.ar    1  UNL1       -0.2160
     15 C           4.8100    0.3257    0.1575 C.ar    1  UNL1        0.1129
     16 C           3.6779    1.1373    0.2670 C.ar    1  UNL1        0.0120
     17 C           2.4378    0.5175    0.1966 C.ar    1  UNL1        0.1580
     18 O           1.2050    1.0922    0.2769 O.2     1  UNL1       -0.4352
     19 C          -1.5578    1.6397    0.3634 C.ar    1  UNL1        0.0406
     20 N          -2.8712    1.9679    0.4131 N.ar    1  UNL1       -0.2527
     21 C          -3.7637    0.9647    0.2921 C.ar    1  UNL1        0.0892
     22 C          -5.1214    1.2397    0.3354 C.ar    1  UNL1       -0.0328
     23 H          -7.1251    0.4331    0.2462 H       1  UNL1        0.0633
     24 H          -6.2885   -1.9053   -0.0543 H       1  UNL1        0.0830
     25 H          -1.7262   -1.6995   -0.0571 H       1  UNL1        0.0647
     26 H           3.3030   -2.7321   -0.2191 H       1  UNL1        0.0677
     27 H           7.7761   -0.7852   -0.0015 H       1  UNL1        0.1255
     28 H           3.7688    2.2086    0.4017 H       1  UNL1        0.0677
     29 H          -0.8834    2.4869    0.4662 H       1  UNL1        0.0837
     30 H          -5.4494    2.2673    0.4672 H       1  UNL1        0.0640
@<TRIPOS>BOND
     1     1     2   ar
     2     2     3   ar
     3     3     4   ar
     4     4     5   ar
     5     5     6   ar
     6     6     7    1
     7     7     8   ar
     8     8     9   ar
     9     9    10   ar
    10    10    11   ar
    11    11    12   ar
    12    12    13   ar
    13    13    14   ar
    14    14    15   ar
    15    15    16   ar
    16    16    17   ar
    17    17    18   ar
    18     6    19   ar
    19    19    20   ar
    20    20    21   ar
    21    21    22   ar
    22    22     1   ar
    23    21     4   ar
    24    18     7   ar
    25    17     9   ar
    26    15    11   ar
    27     1    23    1
    28     2    24    1
    29     5    25    1
    30    10    26    1
    31    13    27    1
    32    16    28    1
    33    19    29    1
    34    22    30    1
