@<TRIPOS>MOLECULE
*****
 30 34 0 0 0
SMALL
GASTEIGER

@<TRIPOS>ATOM
      1 C          -6.2339   -0.3148    0.0403 C.ar    1  UNL1        0.0464
      2 C          -5.8347    0.8603    0.6420 C.ar    1  UNL1        0.0464
      3 N          -4.5330    1.1961    0.7740 N.ar    1  UNL1       -0.2519
      4 C          -3.6338    0.3196    0.2849 C.ar    1  UNL1        0.0898
      5 C          -2.2755    0.6064    0.3893 C.ar    1  UNL1       -0.0245
      6 C          -1.2880   -0.2632   -0.0992 C.ar    1  UNL1        0.0093
      7 C           0.1629    0.0064   -0.0070 C.ar    1  UNL1        0.1095
      8 N           1.0853   -0.8169   -0.4690 N.ar    1  UNL1       -0.2390
      9 C           2.3524   -0.3108   -0.2467 C.ar    1  UNL1        0.0801
     10 C           3.5614   -0.9197   -0.6061 C.ar    1  UNL1       -0.0194
     11 C           4.7761   -0.2964   -0.3208 C.ar    1  UNL1        0.0410
     12 S           6.3842   -0.8170   -0.6474 S.2     1  UNL1       -0.0753
     13 C           6.9827    0.6124    0.0807 C.ar    1  UNL1        0.0659
     14 N           6.0853    1.4495    0.5491 N.ar    1  UNL1       -0.2474
     15 C           4.8178    0.9398    0.3249 C.ar    1  UNL1        0.0793
     16 C           3.6073    1.5468    0.6834 C.ar    1  UNL1       -0.0194
     17 C           2.3937    0.9220    0.3973 C.ar    1  UNL1        0.0416
     18 S           0.7894    1.4371    0.7209 S.2     1  UNL1       -0.0671
     19 C          -1.7176   -1.4509   -0.7065 C.ar    1  UNL1       -0.0499
     20 C          -3.0784   -1.7511   -0.8178 C.ar    1  UNL1       -0.0336
     21 C          -4.0456   -0.8863   -0.3325 C.ar    1  UNL1        0.0892
     22 N          -5.3490   -1.2056   -0.4558 N.ar    1  UNL1       -0.2519
     23 H          -7.2810   -0.5756   -0.0609 H       1  UNL1        0.0845
     24 H          -6.5525    1.5695    1.0375 H       1  UNL1        0.0845
     25 H          -2.0106    1.5443    0.8713 H       1  UNL1        0.0646
     26 H           3.5381   -1.8822   -1.1092 H       1  UNL1        0.0651
     27 H           8.0448    0.8094    0.1480 H       1  UNL1        0.0907
     28 H           3.6300    2.5094    1.1865 H       1  UNL1        0.0651
     29 H          -0.9904   -2.1597   -1.1020 H       1  UNL1        0.0625
     30 H          -3.3876   -2.6789   -1.2931 H       1  UNL1        0.0640
@<TRIPOS>BOND
     1     1     2   ar
     2     2     3   ar
     3     3     4   ar
     4     4     5   ar
     5     5     6   ar
     6     6     7    1
     7     7     8   ar
     8     8     9   ar
     9     9    10   ar
    10    10    11   ar
    11    11    12   ar
    12    12    13   ar
    13    13    14   ar
    14    14    15   ar
    15    15    16   ar
    16    16    17   ar
    17    17    18   ar
    18     6    19   ar
    19    19    20   ar
    20    20    21   ar
    21    21    22   ar
    22    22     1   ar
    23    21     4   ar
    24    18     7   ar
    25    17     9   ar
    26    15    11   ar
    27     1    23    1
    28     2    24    1
    29     5    25    1
    30    10    26    1
    31    13    27    1
    32    16    28    1
    33    19    29    1
    34    20    30    1
