@<TRIPOS>MOLECULE
*****
 30 34 0 0 0
SMALL
GASTEIGER

@<TRIPOS>ATOM
      1 C          -6.1705   -0.4115   -0.6690 C.ar    1  UNL1       -0.0415
      2 C          -5.5527   -1.4673   -1.3093 C.ar    1  UNL1        0.0284
      3 N          -4.2138   -1.6321   -1.3512 N.ar    1  UNL1       -0.2534
      4 C          -3.4525   -0.7078   -0.7297 C.ar    1  UNL1        0.0898
      5 C          -2.0700   -0.8362   -0.7464 C.ar    1  UNL1       -0.0231
      6 C          -1.2368    0.0965   -0.1163 C.ar    1  UNL1        0.0273
      7 C           0.2326    0.0239   -0.0936 C.ar    1  UNL1        0.1110
      8 N           0.9946    0.9171    0.5081 N.ar    1  UNL1       -0.2389
      9 C           2.3325    0.5965    0.3675 C.ar    1  UNL1        0.0801
     10 C           3.4157    1.3226    0.8784 C.ar    1  UNL1       -0.0194
     11 C           4.7221    0.8846    0.6618 C.ar    1  UNL1        0.0410
     12 S           6.2141    1.5768    1.1703 S.2     1  UNL1       -0.0753
     13 C           7.0558    0.3000    0.4004 C.ar    1  UNL1        0.0659
     14 N           6.3196   -0.6030   -0.2064 N.ar    1  UNL1       -0.2474
     15 C           4.9814   -0.2789   -0.0635 C.ar    1  UNL1        0.0793
     16 C           3.8964   -1.0034   -0.5734 C.ar    1  UNL1       -0.0194
     17 C           2.5908   -0.5639   -0.3559 C.ar    1  UNL1        0.0416
     18 S           1.1014   -1.2506   -0.8608 S.2     1  UNL1       -0.0671
     19 C          -1.8771    1.1533    0.5236 C.ar    1  UNL1        0.0381
     20 N          -3.2208    1.3276    0.5713 N.ar    1  UNL1       -0.2528
     21 C          -3.9825    0.4070   -0.0478 C.ar    1  UNL1        0.0892
     22 C          -5.3630    0.5294   -0.0348 C.ar    1  UNL1       -0.0328
     23 H          -7.2505   -0.3183   -0.6604 H       1  UNL1        0.0633
     24 H          -6.1316   -2.2314   -1.8207 H       1  UNL1        0.0830
     25 H          -1.6610   -1.6950   -1.2717 H       1  UNL1        0.0647
     26 H           3.2233    2.2298    1.4444 H       1  UNL1        0.0651
     27 H           8.1367    0.2459    0.4166 H       1  UNL1        0.0907
     28 H           4.0888   -1.9106   -1.1394 H       1  UNL1        0.0651
     29 H          -1.3086    1.9255    1.0397 H       1  UNL1        0.0836
     30 H          -5.8145    1.3737    0.4792 H       1  UNL1        0.0640
@<TRIPOS>BOND
     1     1     2   ar
     2     2     3   ar
     3     3     4   ar
     4     4     5   ar
     5     5     6   ar
     6     6     7    1
     7     7     8   ar
     8     8     9   ar
     9     9    10   ar
    10    10    11   ar
    11    11    12   ar
    12    12    13   ar
    13    13    14   ar
    14    14    15   ar
    15    15    16   ar
    16    16    17   ar
    17    17    18   ar
    18     6    19   ar
    19    19    20   ar
    20    20    21   ar
    21    21    22   ar
    22    22     1   ar
    23    21     4   ar
    24    18     7   ar
    25    17     9   ar
    26    15    11   ar
    27     1    23    1
    28     2    24    1
    29     5    25    1
    30    10    26    1
    31    13    27    1
    32    16    28    1
    33    19    29    1
    34    22    30    1
