@<TRIPOS>MOLECULE
*****
 28 31 0 0 0
SMALL
GASTEIGER

@<TRIPOS>ATOM
      1 C           5.6162    0.0892    0.3755 C.ar    1  UNL1       -0.0415
      2 C           5.1719   -1.1299   -0.0963 C.ar    1  UNL1        0.0284
      3 N           3.8687   -1.4243   -0.2872 N.ar    1  UNL1       -0.2534
      4 C           2.9643   -0.4660    0.0030 C.ar    1  UNL1        0.0898
      5 C           1.6119   -0.7234   -0.1776 C.ar    1  UNL1       -0.0231
      6 C           0.6351    0.2383    0.1092 C.ar    1  UNL1        0.0273
      7 C          -0.8128    0.0356   -0.0577 C.ar    1  UNL1        0.1110
      8 N          -1.7107    0.9604    0.2208 N.ar    1  UNL1       -0.2390
      9 C          -2.9897    0.4942   -0.0310 C.ar    1  UNL1        0.0789
     10 C          -4.1855    1.2169    0.1549 C.ar    1  UNL1       -0.0352
     11 C          -5.4137    0.6171   -0.1422 C.ar    1  UNL1       -0.0597
     12 C          -5.4625   -0.6886   -0.6201 C.ar    1  UNL1       -0.0606
     13 C          -4.2898   -1.4258   -0.8127 C.ar    1  UNL1       -0.0459
     14 C          -3.0626   -0.8125   -0.5107 C.ar    1  UNL1        0.0395
     15 S          -1.4708   -1.4461   -0.6387 S.2     1  UNL1       -0.0671
     16 C           1.1018    1.4604    0.5836 C.ar    1  UNL1        0.0381
     17 N           2.4085    1.7655    0.7786 N.ar    1  UNL1       -0.2528
     18 C           3.3121    0.8111    0.4897 C.ar    1  UNL1        0.0892
     19 C           4.6635    1.0619    0.6679 C.ar    1  UNL1       -0.0328
     20 H           6.6738    0.2827    0.5139 H       1  UNL1        0.0633
     21 H           5.8693   -1.9263   -0.3410 H       1  UNL1        0.0830
     22 H           1.3427   -1.7071   -0.5525 H       1  UNL1        0.0647
     23 H          -4.1429    2.2354    0.5279 H       1  UNL1        0.0639
     24 H          -6.3344    1.1778    0.0023 H       1  UNL1        0.0618
     25 H          -6.4245   -1.1436   -0.8475 H       1  UNL1        0.0618
     26 H          -4.3292   -2.4447   -1.1857 H       1  UNL1        0.0629
     27 H           0.4132    2.2665    0.8323 H       1  UNL1        0.0836
     28 H           4.9765    2.0334    1.0412 H       1  UNL1        0.0640
@<TRIPOS>BOND
     1     1     2   ar
     2     2     3   ar
     3     3     4   ar
     4     4     5   ar
     5     5     6   ar
     6     6     7    1
     7     7     8   ar
     8     8     9   ar
     9     9    10   ar
    10    10    11   ar
    11    11    12   ar
    12    12    13   ar
    13    13    14   ar
    14    14    15   ar
    15     6    16   ar
    16    16    17   ar
    17    17    18   ar
    18    18    19   ar
    19    19     1   ar
    20    18     4   ar
    21    15     7   ar
    22    14     9   ar
    23     1    20    1
    24     2    21    1
    25     5    22    1
    26    10    23    1
    27    11    24    1
    28    12    25    1
    29    13    26    1
    30    16    27    1
    31    19    28    1
