@<TRIPOS>MOLECULE
*****
 30 34 0 0 0
SMALL
GASTEIGER

@<TRIPOS>ATOM
      1 C          -6.0662   -0.1366    0.1466 C.ar    1  UNL1        0.0464
      2 C          -5.5173   -1.2393   -0.4745 C.ar    1  UNL1        0.0464
      3 N          -4.1824   -1.4079   -0.5983 N.ar    1  UNL1       -0.2519
      4 C          -3.4065   -0.4360   -0.0799 C.ar    1  UNL1        0.0898
      5 C          -2.0234   -0.5520   -0.1758 C.ar    1  UNL1       -0.0236
      6 C          -1.1620    0.4235    0.3426 C.ar    1  UNL1        0.0195
      7 C           0.3004    0.3226    0.2532 C.ar    1  UNL1        0.1422
      8 N           1.1582    1.2170    0.7269 N.ar    1  UNL1       -0.2068
      9 C           2.4022    0.7349    0.4323 C.ar    1  UNL1        0.1998
     10 N           3.5995    1.3017    0.7174 N.ar    1  UNL1       -0.2020
     11 C           4.6712    0.5859    0.2977 C.ar    1  UNL1        0.1992
     12 N           5.9959    0.8998    0.4404 N.ar    1  UNL1       -0.2152
     13 C           6.6403   -0.1003   -0.1263 C.ar    1  UNL1        0.0973
     14 N           5.7875   -1.0482   -0.6297 N.ar    1  UNL1       -0.3279
     15 C           4.5192   -0.6276   -0.3683 C.ar    1  UNL1        0.1791
     16 N           3.3483   -1.2260   -0.6715 N.ar    1  UNL1       -0.2052
     17 C           2.3126   -0.4790   -0.2355 C.ar    1  UNL1        0.1795
     18 N           0.9790   -0.7249   -0.3405 N.ar    1  UNL1       -0.3214
     19 C          -1.7329    1.5358    0.9695 C.ar    1  UNL1       -0.0490
     20 C          -3.1209    1.6636    1.0720 C.ar    1  UNL1       -0.0336
     21 C          -3.9701    0.6964    0.5579 C.ar    1  UNL1        0.0892
     22 N          -5.3044    0.8466    0.6715 N.ar    1  UNL1       -0.2519
     23 H          -7.1385   -0.0106    0.2408 H       1  UNL1        0.0845
     24 H          -6.1381   -2.0232   -0.8928 H       1  UNL1        0.0845
     25 H          -1.6406   -1.4378   -0.6734 H       1  UNL1        0.0646
     26 H           7.7161   -0.1936   -0.2025 H       1  UNL1        0.1028
     27 H           6.0390   -1.9011   -1.1061 H       1  UNL1        0.1683
     28 H           0.5760   -1.5371   -0.7793 H       1  UNL1        0.1689
     29 H          -1.0971    2.3173    1.3861 H       1  UNL1        0.0625
     30 H          -3.5452    2.5359    1.5631 H       1  UNL1        0.0640
@<TRIPOS>BOND
     1     1     2   ar
     2     2     3   ar
     3     3     4   ar
     4     4     5   ar
     5     5     6   ar
     6     6     7    1
     7     7     8   ar
     8     8     9   ar
     9     9    10   ar
    10    10    11   ar
    11    11    12   ar
    12    12    13   ar
    13    13    14   ar
    14    14    15   ar
    15    15    16   ar
    16    16    17   ar
    17    17    18   ar
    18     6    19   ar
    19    19    20   ar
    20    20    21   ar
    21    21    22   ar
    22    22     1   ar
    23    21     4   ar
    24    18     7   ar
    25    17     9   ar
    26    15    11   ar
    27     1    23    1
    28     2    24    1
    29     5    25    1
    30    13    26    1
    31    14    27    1
    32    18    28    1
    33    19    29    1
    34    20    30    1
