@<TRIPOS>MOLECULE
*****
 30 34 0 0 0
SMALL
GASTEIGER

@<TRIPOS>ATOM
      1 C           6.0179    0.3498   -0.3849 C.ar    1  UNL1       -0.0415
      2 C           5.3771    1.5728   -0.4153 C.ar    1  UNL1        0.0284
      3 N           4.0362    1.7139   -0.3457 N.ar    1  UNL1       -0.2534
      4 C           3.2992    0.5891   -0.2412 C.ar    1  UNL1        0.0898
      5 C           1.9170    0.6875   -0.1668 C.ar    1  UNL1       -0.0221
      6 C           1.1104   -0.4493   -0.0577 C.ar    1  UNL1        0.0375
      7 C          -0.3502   -0.3982    0.0238 C.ar    1  UNL1        0.1437
      8 N          -1.1460   -1.4537    0.1279 N.ar    1  UNL1       -0.2068
      9 C          -2.4193   -0.9589    0.1742 C.ar    1  UNL1        0.1998
     10 N          -3.5758   -1.6564    0.2794 N.ar    1  UNL1       -0.2020
     11 C          -4.6923   -0.8882    0.3015 C.ar    1  UNL1        0.1992
     12 N          -5.9928   -1.3034    0.3994 N.ar    1  UNL1       -0.2152
     13 C          -6.7018   -0.1928    0.3792 C.ar    1  UNL1        0.0973
     14 N          -5.9139    0.9239    0.2722 N.ar    1  UNL1       -0.3279
     15 C          -4.6209    0.5003    0.2209 C.ar    1  UNL1        0.1791
     16 N          -3.4923    1.2326    0.1154 N.ar    1  UNL1       -0.2052
     17 C          -2.4100    0.4274    0.0973 C.ar    1  UNL1        0.1795
     18 N          -1.0958    0.7656    0.0028 N.ar    1  UNL1       -0.3214
     19 C           1.7658   -1.6754   -0.0280 C.ar    1  UNL1        0.0390
     20 N           3.1109   -1.8263   -0.0973 N.ar    1  UNL1       -0.2527
     21 C           3.8524   -0.7079   -0.2017 C.ar    1  UNL1        0.0892
     22 C           5.2333   -0.7958   -0.2766 C.ar    1  UNL1       -0.0328
     23 H           7.0984    0.2836   -0.4437 H       1  UNL1        0.0633
     24 H           5.9390    2.4991   -0.4988 H       1  UNL1        0.0830
     25 H           1.4914    1.6853   -0.1972 H       1  UNL1        0.0647
     26 H          -7.7812   -0.1336    0.4383 H       1  UNL1        0.1028
     27 H          -6.2214    1.8840    0.2371 H       1  UNL1        0.1683
     28 H          -0.7475    1.7084   -0.0692 H       1  UNL1        0.1689
     29 H           1.2093   -2.6079    0.0555 H       1  UNL1        0.0837
     30 H           5.7031   -1.7755   -0.2497 H       1  UNL1        0.0640
@<TRIPOS>BOND
     1     1     2   ar
     2     2     3   ar
     3     3     4   ar
     4     4     5   ar
     5     5     6   ar
     6     6     7    1
     7     7     8   ar
     8     8     9   ar
     9     9    10   ar
    10    10    11   ar
    11    11    12   ar
    12    12    13   ar
    13    13    14   ar
    14    14    15   ar
    15    15    16   ar
    16    16    17   ar
    17    17    18   ar
    18     6    19   ar
    19    19    20   ar
    20    20    21   ar
    21    21    22   ar
    22    22     1   ar
    23    21     4   ar
    24    18     7   ar
    25    17     9   ar
    26    15    11   ar
    27     1    23    1
    28     2    24    1
    29     5    25    1
    30    13    26    1
    31    14    27    1
    32    18    28    1
    33    19    29    1
    34    22    30    1
