@<TRIPOS>MOLECULE
*****
 40 44 0 0 0
SMALL
GASTEIGER

@<TRIPOS>ATOM
      1 C           6.9936   -1.0296   -0.0470 C.ar    1  UNL1        0.0482
      2 C           6.3783   -1.3886    1.1313 C.ar    1  UNL1        0.0482
      3 N           5.0494   -1.2539    1.3148 N.ar    1  UNL1       -0.2316
      4 C           4.3421   -0.7490    0.2939 C.ar    1  UNL1        0.1983
      5 N           3.0207   -0.6049    0.4563 N.ar    1  UNL1       -0.2232
      6 C           2.2998   -0.0914   -0.5707 C.ar    1  UNL1        0.0916
      7 C           0.8466    0.0521   -0.3482 C.ar    1  UNL1        0.0025
      8 C           0.1796   -0.7627    0.5804 C.ar    1  UNL1       -0.0476
      9 C          -1.2056   -0.6583    0.8110 C.ar    1  UNL1       -0.0254
     10 C          -1.9818    0.2686    0.0913 C.ar    1  UNL1        0.0361
     11 C          -1.3214    1.1160   -0.8184 C.ar    1  UNL1       -0.0254
     12 C           0.0667    0.9962   -1.0343 C.ar    1  UNL1       -0.0476
     13 C          -2.0889    2.1371   -1.6224 C.3     1  UNL1       -0.0245
     14 C          -3.4612    2.4185   -1.0293 C.3     1  UNL1       -0.0332
     15 C          -4.1407    1.1036   -0.6850 C.3     1  UNL1        0.0125
     16 N          -3.3590    0.3899    0.3220 N.pl3   1  UNL1       -0.3294
     17 C          -4.0181   -0.7269    0.9965 C.3     1  UNL1        0.0125
     18 C          -3.2242   -1.1300    2.2281 C.3     1  UNL1       -0.0332
     19 C          -1.8405   -1.5990    1.8047 C.3     1  UNL1       -0.0245
     20 C           2.9402    0.2516   -1.7537 C.ar    1  UNL1        0.0561
     21 N           4.2734    0.1184   -1.9472 N.ar    1  UNL1       -0.2310
     22 C           4.9812   -0.3788   -0.9281 C.ar    1  UNL1        0.1977
     23 N           6.3043   -0.5223   -1.0885 N.ar    1  UNL1       -0.2316
     24 H           8.0628   -1.1394   -0.1902 H       1  UNL1        0.0846
     25 H           6.9364   -1.7967    1.9666 H       1  UNL1        0.0846
     26 H           0.7480   -1.5034    1.1439 H       1  UNL1        0.0627
     27 H           0.5288    1.6788   -1.7446 H       1  UNL1        0.0627
     28 H          -1.5255    3.0760   -1.6775 H       1  UNL1        0.0314
     29 H          -2.2012    1.7541   -2.6444 H       1  UNL1        0.0314
     30 H          -4.0668    2.9906   -1.7407 H       1  UNL1        0.0283
     31 H          -3.3568    3.0302   -0.1236 H       1  UNL1        0.0283
     32 H          -4.2676    0.4809   -1.5798 H       1  UNL1        0.0464
     33 H          -5.1417    1.3170   -0.2921 H       1  UNL1        0.0464
     34 H          -5.0247   -0.4257    1.3099 H       1  UNL1        0.0464
     35 H          -4.1312   -1.5738    0.3076 H       1  UNL1        0.0464
     36 H          -3.1349   -0.2731    2.9085 H       1  UNL1        0.0283
     37 H          -3.7393   -1.9276    2.7745 H       1  UNL1        0.0283
     38 H          -1.9136   -2.5904    1.3405 H       1  UNL1        0.0314
     39 H          -1.2077   -1.6925    2.6952 H       1  UNL1        0.0314
     40 H           2.4003    0.6384   -2.6113 H       1  UNL1        0.0852
@<TRIPOS>BOND
     1     1     2   ar
     2     2     3   ar
     3     3     4   ar
     4     4     5   ar
     5     5     6   ar
     6     6     7    1
     7     7     8   ar
     8     8     9   ar
     9     9    10   ar
    10    10    11   ar
    11    11    12   ar
    12    11    13    1
    13    13    14    1
    14    14    15    1
    15    15    16    1
    16    16    17    1
    17    17    18    1
    18    18    19    1
    19     6    20   ar
    20    20    21   ar
    21    21    22   ar
    22    22    23   ar
    23    23     1   ar
    24    22     4   ar
    25    12     7   ar
    26    19     9    1
    27    16    10    1
    28     1    24    1
    29     2    25    1
    30     8    26    1
    31    12    27    1
    32    13    28    1
    33    13    29    1
    34    14    30    1
    35    14    31    1
    36    15    32    1
    37    15    33    1
    38    17    34    1
    39    17    35    1
    40    18    36    1
    41    18    37    1
    42    19    38    1
    43    19    39    1
    44    20    40    1
