@<TRIPOS>MOLECULE
*****
 31 35 0 0 0
SMALL
GASTEIGER

@<TRIPOS>ATOM
      1 C           6.2134   -1.0929    1.2989 C.ar    1  UNL1        0.0482
      2 C           5.3212   -1.8261    2.0494 C.ar    1  UNL1        0.0482
      3 N           3.9864   -1.6938    1.9076 N.ar    1  UNL1       -0.2316
      4 C           3.5581   -0.8100    0.9966 C.ar    1  UNL1        0.1983
      5 N           2.2357   -0.6675    0.8441 N.ar    1  UNL1       -0.2217
      6 C           1.8175    0.2274   -0.0782 C.ar    1  UNL1        0.1077
      7 C           0.3709    0.3400   -0.2002 C.ar    1  UNL1        0.0675
      8 C          -0.4429    1.1192   -1.0053 C.ar    1  UNL1       -0.0271
      9 C          -1.8008    0.8181   -0.7014 C.ar    1  UNL1        0.0011
     10 C          -3.0394    1.2798   -1.1817 C.ar    1  UNL1       -0.0418
     11 C          -4.2369    0.7693   -0.6617 C.ar    1  UNL1        0.0208
     12 C          -5.6226    0.9811   -0.8855 C.ar    1  UNL1       -0.0161
     13 C          -6.2890    0.1399   -0.0230 C.ar    1  UNL1        0.0931
     14 O          -5.4086   -0.5801    0.7215 O.2     1  UNL1       -0.4629
     15 C          -4.1626   -0.1971    0.3327 C.ar    1  UNL1        0.1368
     16 C          -2.9616   -0.6766    0.8313 C.ar    1  UNL1        0.0051
     17 C          -1.7856   -0.1534    0.2981 C.ar    1  UNL1        0.0505
     18 N          -0.4710   -0.4236    0.5816 N.ar    1  UNL1       -0.3528
     19 C           2.7156    0.9626   -0.8306 C.ar    1  UNL1        0.0575
     20 N           4.0550    0.8347   -0.6934 N.ar    1  UNL1       -0.2309
     21 C           4.4852   -0.0479    0.2166 C.ar    1  UNL1        0.1977
     22 N           5.8069   -0.1977    0.3763 N.ar    1  UNL1       -0.2316
     23 H           7.2857   -1.2030    1.4169 H       1  UNL1        0.0846
     24 H           5.6538   -2.5448    2.7903 H       1  UNL1        0.0846
     25 H          -0.1103    1.8378   -1.7431 H       1  UNL1        0.0645
     26 H          -3.0677    2.0368   -1.9605 H       1  UNL1        0.0631
     27 H          -6.0790    1.6626   -1.5886 H       1  UNL1        0.0655
     28 H          -7.3336   -0.0561    0.1742 H       1  UNL1        0.1029
     29 H          -2.9496   -1.4325    1.6090 H       1  UNL1        0.0675
     30 H          -0.1383   -1.0895    1.2681 H       1  UNL1        0.1660
     31 H           2.3939    1.6834   -1.5736 H       1  UNL1        0.0853
@<TRIPOS>BOND
     1     1     2   ar
     2     2     3   ar
     3     3     4   ar
     4     4     5   ar
     5     5     6   ar
     6     6     7    1
     7     7     8   ar
     8     8     9   ar
     9     9    10   ar
    10    10    11   ar
    11    11    12   ar
    12    12    13   ar
    13    13    14   ar
    14    14    15   ar
    15    15    16   ar
    16    16    17   ar
    17    17    18   ar
    18     6    19   ar
    19    19    20   ar
    20    20    21   ar
    21    21    22   ar
    22    22     1   ar
    23    21     4   ar
    24    18     7   ar
    25    17     9   ar
    26    15    11   ar
    27     1    23    1
    28     2    24    1
    29     8    25    1
    30    10    26    1
    31    12    27    1
    32    13    28    1
    33    16    29    1
    34    18    30    1
    35    19    31    1
