@<TRIPOS>MOLECULE
*****
 30 34 0 0 0
SMALL
GASTEIGER

@<TRIPOS>ATOM
      1 C          -6.3164    0.6594   -0.0954 C.ar    1  UNL1        0.0482
      2 C          -5.5713    1.8156   -0.1584 C.ar    1  UNL1        0.0482
      3 N          -4.2236    1.8011   -0.1266 N.ar    1  UNL1       -0.2316
      4 C          -3.6285    0.6039   -0.0301 C.ar    1  UNL1        0.1984
      5 N          -2.2909    0.5670    0.0030 N.ar    1  UNL1       -0.2200
      6 C          -1.6999   -0.6449    0.1004 C.ar    1  UNL1        0.1265
      7 C          -0.2432   -0.6663    0.1353 C.ar    1  UNL1        0.1559
      8 C           0.7086   -1.6681    0.2264 C.ar    1  UNL1       -0.0064
      9 C           1.9802   -1.0359    0.2117 C.ar    1  UNL1        0.0243
     10 C           3.3167   -1.4505    0.2709 C.ar    1  UNL1       -0.0080
     11 C           4.3122   -0.4798    0.2265 C.ar    1  UNL1        0.1356
     12 O           5.6533   -0.7048    0.2727 O.2     1  UNL1       -0.4629
     13 C           6.2581    0.5106    0.2024 C.ar    1  UNL1        0.0931
     14 C           5.3220    1.5160    0.1114 C.ar    1  UNL1       -0.0160
     15 C           4.0521    0.8832    0.1261 C.ar    1  UNL1        0.0236
     16 C           2.7152    1.2961    0.0670 C.ar    1  UNL1       -0.0080
     17 C           1.7209    0.3249    0.1115 C.ar    1  UNL1        0.1365
     18 O           0.3828    0.5495    0.0654 O.2     1  UNL1       -0.4532
     19 C          -2.4600   -1.8000    0.1630 C.ar    1  UNL1        0.0591
     20 N          -3.8123   -1.7923    0.1316 N.ar    1  UNL1       -0.2309
     21 C          -4.4044   -0.5957    0.0352 C.ar    1  UNL1        0.1977
     22 N          -5.7432   -0.5571    0.0020 N.ar    1  UNL1       -0.2316
     23 H          -7.4003    0.6759   -0.1214 H       1  UNL1        0.0846
     24 H          -6.0362    2.7921   -0.2367 H       1  UNL1        0.0846
     25 H           0.5204   -2.7300    0.2956 H       1  UNL1        0.0662
     26 H           3.5809   -2.4998    0.3496 H       1  UNL1        0.0661
     27 H           7.3389    0.4944    0.2282 H       1  UNL1        0.1029
     28 H           5.5295    2.5743    0.0429 H       1  UNL1        0.0655
     29 H           2.4505    2.3456   -0.0117 H       1  UNL1        0.0661
     30 H          -2.0120   -2.7845    0.2414 H       1  UNL1        0.0853
@<TRIPOS>BOND
     1     1     2   ar
     2     2     3   ar
     3     3     4   ar
     4     4     5   ar
     5     5     6   ar
     6     6     7    1
     7     7     8   ar
     8     8     9   ar
     9     9    10   ar
    10    10    11   ar
    11    11    12   ar
    12    12    13   ar
    13    13    14   ar
    14    14    15   ar
    15    15    16   ar
    16    16    17   ar
    17    17    18   ar
    18     6    19   ar
    19    19    20   ar
    20    20    21   ar
    21    21    22   ar
    22    22     1   ar
    23    21     4   ar
    24    18     7   ar
    25    17     9   ar
    26    15    11   ar
    27     1    23    1
    28     2    24    1
    29     8    25    1
    30    10    26    1
    31    13    27    1
    32    14    28    1
    33    16    29    1
    34    19    30    1
