@<TRIPOS>MOLECULE
*****
 29 33 0 0 0
SMALL
GASTEIGER

@<TRIPOS>ATOM
      1 C          -6.1656    0.0894   -0.7893 C.ar    1  UNL1        0.0482
      2 C          -5.5742    1.3329   -0.7997 C.ar    1  UNL1        0.0482
      3 N          -4.2446    1.4945   -0.6432 N.ar    1  UNL1       -0.2316
      4 C          -3.5121    0.3849   -0.4751 C.ar    1  UNL1        0.1983
      5 N          -2.1893    0.5231   -0.3177 N.ar    1  UNL1       -0.2217
      6 C          -1.4592   -0.5988   -0.1491 C.ar    1  UNL1        0.1077
      7 C          -0.0251   -0.3666    0.0158 C.ar    1  UNL1        0.0701
      8 C           0.6771    0.8382    0.0220 C.ar    1  UNL1       -0.0072
      9 C           2.0449    0.5567    0.2136 C.ar    1  UNL1        0.1090
     10 N           3.1338    1.3662    0.2955 N.ar    1  UNL1       -0.2387
     11 C           4.3146    0.7183    0.4886 C.ar    1  UNL1        0.1293
     12 C           5.6360    1.1911    0.6228 C.ar    1  UNL1        0.0039
     13 C           6.4211    0.0714    0.7983 C.ar    1  UNL1        0.0966
     14 O           5.6673   -1.0640    0.7809 O.2     1  UNL1       -0.4439
     15 C           4.3779   -0.6711    0.5915 C.ar    1  UNL1        0.2478
     16 N           3.3134   -1.4970    0.5138 N.ar    1  UNL1       -0.1914
     17 C           2.1631   -0.8217    0.3227 C.ar    1  UNL1        0.1609
     18 N           0.9161   -1.3638    0.2026 N.ar    1  UNL1       -0.3365
     19 C          -2.0631   -1.8445   -0.1400 C.ar    1  UNL1        0.0575
     20 N          -3.3954   -2.0132   -0.2964 N.ar    1  UNL1       -0.2309
     21 C          -4.1277   -0.9052   -0.4644 C.ar    1  UNL1        0.1977
     22 N          -5.4510   -1.0417   -0.6219 N.ar    1  UNL1       -0.2316
     23 H          -7.2353   -0.0358   -0.9155 H       1  UNL1        0.0846
     24 H          -6.1527    2.2402   -0.9347 H       1  UNL1        0.0846
     25 H           0.2365    1.8197   -0.1006 H       1  UNL1        0.0661
     26 H           5.9705    2.2172    0.5948 H       1  UNL1        0.0671
     27 H           7.4822   -0.0814    0.9424 H       1  UNL1        0.1031
     28 H           0.7484   -2.3576    0.2494 H       1  UNL1        0.1674
     29 H          -1.5074   -2.7650   -0.0071 H       1  UNL1        0.0853
@<TRIPOS>BOND
     1     1     2   ar
     2     2     3   ar
     3     3     4   ar
     4     4     5   ar
     5     5     6   ar
     6     6     7    1
     7     7     8   ar
     8     8     9   ar
     9     9    10   ar
    10    10    11   ar
    11    11    12   ar
    12    12    13   ar
    13    13    14   ar
    14    14    15   ar
    15    15    16   ar
    16    16    17   ar
    17    17    18   ar
    18     6    19   ar
    19    19    20   ar
    20    20    21   ar
    21    21    22   ar
    22    22     1   ar
    23    21     4   ar
    24    18     7   ar
    25    17     9   ar
    26    15    11   ar
    27     1    23    1
    28     2    24    1
    29     8    25    1
    30    12    26    1
    31    13    27    1
    32    18    28    1
    33    19    29    1
