@<TRIPOS>MOLECULE
*****
 45 51 0 0 0
SMALL
GASTEIGER

@<TRIPOS>ATOM
      1 SI         -6.6724    0.8546    0.8007 Si      1  UNL1        0.0000
      2 C          -6.6079   -0.6347   -0.3199 C.2     1  UNL1        0.0000
      3 C          -5.3334   -0.9731   -0.5952 C.ar    1  UNL1        0.0000
      4 C          -4.9640   -2.1637   -1.3580 C.ar    1  UNL1        0.0000
      5 C          -3.6672   -2.4977   -1.5104 C.ar    1  UNL1        0.0000
      6 C          -2.7118   -1.6102   -0.9477 C.ar    1  UNL1        0.0000
      7 N          -1.3683   -1.8516   -1.0287 N.ar    1  UNL1        0.0000
      8 C          -0.6595   -0.7971   -0.4755 C.ar    1  UNL1        0.0000
      9 C          -1.6443    0.1074   -0.0632 C.ar    1  UNL1        0.0000
     10 C          -1.1620    1.3520    0.4415 C.ar    1  UNL1        0.0000
     11 C          -1.7866    2.5069    0.7954 C.ar    1  UNL1        0.0000
     12 O          -0.8309    3.4058    1.1963 O.2     1  UNL1        0.0000
     13 C           0.3879    2.7984    1.0502 C.ar    1  UNL1        0.0000
     14 C           0.2314    1.5235    0.5557 C.ar    1  UNL1        0.0000
     15 C           1.2628    0.6233    0.2174 C.ar    1  UNL1        0.0000
     16 C           2.6578    0.8248    0.3515 C.ar    1  UNL1        0.0000
     17 C           3.5669   -0.1622   -0.0606 C.ar    1  UNL1        0.0000
     18 C           3.0538   -1.3500   -0.6126 C.ar    1  UNL1        0.0000
     19 C           1.6751   -1.5637   -0.7521 C.ar    1  UNL1        0.0000
     20 C           0.7565   -0.5840   -0.3381 C.ar    1  UNL1        0.0000
     21 C           5.0156    0.0404    0.0780 C.ar    1  UNL1        0.0000
     22 C           5.8894   -0.1012   -1.0075 C.ar    1  UNL1        0.0000
     23 C           7.2584    0.1025   -0.8409 C.ar    1  UNL1        0.0000
     24 C           7.7231    0.4450    0.4169 C.ar    1  UNL1        0.0000
     25 N           6.9248    0.5921    1.4938 N.ar    1  UNL1        0.0000
     26 C           5.5989    0.3861    1.2984 C.ar    1  UNL1        0.0000
     27 C          -2.9262   -0.4192   -0.2620 C.ar    1  UNL1        0.0000
     28 C          -4.2920   -0.0747    0.0084 C.ar    1  UNL1        0.0000
     29 C          -4.8023    0.8772    0.8103 C.2     1  UNL1        0.0000
     30 H          -7.2482    2.0450    0.1301 H       1  UNL1        0.0000
     31 H          -7.2419    0.5367    2.1322 H       1  UNL1        0.0000
     32 H          -7.5037   -1.1494   -0.6281 H       1  UNL1        0.0000
     33 H          -5.7508   -2.7874   -1.7680 H       1  UNL1        0.0000
     34 H          -3.3733   -3.3883   -2.0544 H       1  UNL1        0.0000
     35 H          -0.9466   -2.6624   -1.4564 H       1  UNL1        0.0000
     36 H          -2.7941    2.8859    0.8086 H       1  UNL1        0.0000
     37 H           1.2363    3.4120    1.3173 H       1  UNL1        0.0000
     38 H           3.0278    1.7604    0.7644 H       1  UNL1        0.0000
     39 H           3.7353   -2.1378   -0.9312 H       1  UNL1        0.0000
     40 H           1.3425   -2.5053   -1.1784 H       1  UNL1        0.0000
     41 H           5.5069   -0.3576   -1.9927 H       1  UNL1        0.0000
     42 H           7.9437    0.0005   -1.6747 H       1  UNL1        0.0000
     43 H           8.7807    0.6158    0.5967 H       1  UNL1        0.0000
     44 H           4.9938    0.5040    2.1945 H       1  UNL1        0.0000
     45 H          -4.2821    1.5708    1.4415 H       1  UNL1        0.0000
@<TRIPOS>BOND
     1     1     2    1
     2     2     3    2
     3     3     4   ar
     4     4     5   ar
     5     5     6   ar
     6     6     7   ar
     7     7     8   ar
     8     8     9   ar
     9     9    10   ar
    10    10    11   ar
    11    11    12   ar
    12    12    13   ar
    13    13    14   ar
    14    14    15   ar
    15    15    16   ar
    16    16    17   ar
    17    17    18   ar
    18    18    19   ar
    19    19    20   ar
    20    17    21    1
    21    21    22   ar
    22    22    23   ar
    23    23    24   ar
    24    24    25   ar
    25    25    26   ar
    26     9    27   ar
    27    27    28   ar
    28    28    29    2
    29    29     1    1
    30    28     3   ar
    31    27     6   ar
    32    20     8   ar
    33    26    21   ar
    34    14    10   ar
    35    20    15   ar
    36     1    30    1
    37     1    31    1
    38     2    32    1
    39     4    33    1
    40     5    34    1
    41     7    35    1
    42    11    36    1
    43    13    37    1
    44    16    38    1
    45    18    39    1
    46    19    40    1
    47    22    41    1
    48    23    42    1
    49    24    43    1
    50    26    44    1
    51    29    45    1
