@<TRIPOS>MOLECULE
*****
 26 29 0 0 0
SMALL
GASTEIGER

@<TRIPOS>ATOM
      1 C           5.1953   -0.0296   -0.7931 C.ar    1  UNL1        0.0482
      2 C           4.5886    1.0669   -1.3639 C.ar    1  UNL1        0.0482
      3 N           3.2584    1.2729   -1.2813 N.ar    1  UNL1       -0.2316
      4 C           2.5421    0.3574   -0.6138 C.ar    1  UNL1        0.1983
      5 N           1.2188    0.5429   -0.5198 N.ar    1  UNL1       -0.2232
      6 C           0.4785   -0.3740    0.1524 C.ar    1  UNL1        0.0916
      7 C          -0.9820   -0.1111    0.2207 C.ar    1  UNL1        0.0041
      8 C          -1.5284    1.0423   -0.3941 C.ar    1  UNL1       -0.0504
      9 C          -2.8965    1.3602   -0.3735 C.ar    1  UNL1       -0.0341
     10 C          -3.7204    0.4652    0.2983 C.ar    1  UNL1        0.0858
     11 N          -5.0648    0.4189    0.5363 N.ar    1  UNL1       -0.2571
     12 N          -5.4095   -0.6664    1.2490 N.ar    1  UNL1       -0.0673
     13 N          -4.2986   -1.3517    1.4915 N.ar    1  UNL1       -0.1296
     14 C          -3.2516   -0.6797    0.9201 C.ar    1  UNL1        0.1131
     15 C          -1.8785   -0.9767    0.8861 C.ar    1  UNL1       -0.0232
     16 C           1.1153   -1.4707    0.7186 C.ar    1  UNL1        0.0561
     17 N           2.4509   -1.6860    0.6409 N.ar    1  UNL1       -0.2310
     18 C           3.1711   -0.7776   -0.0230 C.ar    1  UNL1        0.1977
     19 N           4.4954   -0.9628   -0.1173 N.ar    1  UNL1       -0.2316
     20 H           6.2652   -0.1918   -0.8616 H       1  UNL1        0.0846
     21 H           5.1551    1.8154   -1.9067 H       1  UNL1        0.0846
     22 H          -0.8652    1.7345   -0.9178 H       1  UNL1        0.0625
     23 H          -3.2744    2.2544   -0.8572 H       1  UNL1        0.0639
     24 H          -5.7885    1.0685    0.2550 H       1  UNL1        0.1907
     25 H          -1.5591   -1.8828    1.3863 H       1  UNL1        0.0647
     26 H           0.5829   -2.2386    1.2679 H       1  UNL1        0.0852
@<TRIPOS>BOND
     1     1     2   ar
     2     2     3   ar
     3     3     4   ar
     4     4     5   ar
     5     5     6   ar
     6     6     7    1
     7     7     8   ar
     8     8     9   ar
     9     9    10   ar
    10    10    11   ar
    11    11    12   ar
    12    12    13   ar
    13    13    14   ar
    14    14    15   ar
    15     6    16   ar
    16    16    17   ar
    17    17    18   ar
    18    18    19   ar
    19    19     1   ar
    20    18     4   ar
    21    15     7   ar
    22    14    10   ar
    23     1    20    1
    24     2    21    1
    25     8    22    1
    26     9    23    1
    27    11    24    1
    28    15    25    1
    29    16    26    1
