@<TRIPOS>MOLECULE
*****
 21 23 0 0 0
SMALL
GASTEIGER

@<TRIPOS>ATOM
      1 C           4.1616    0.2051    0.1416 C.ar    1  UNL1        0.0482
      2 C           3.7491   -0.4086   -1.0201 C.ar    1  UNL1        0.0482
      3 N           2.4451   -0.6021   -1.3035 N.ar    1  UNL1       -0.2316
      4 C           1.5553   -0.1689   -0.4003 C.ar    1  UNL1        0.1983
      5 N           0.2555   -0.3524   -0.6649 N.ar    1  UNL1       -0.2231
      6 C          -0.6363    0.0869    0.2506 C.ar    1  UNL1        0.0945
      7 C          -2.0318   -0.1310   -0.0738 C.ar    1  UNL1        0.0391
      8 C          -2.5976   -0.7412   -1.2179 C.ar    1  UNL1        0.0584
      9 N          -3.9327   -0.7710   -1.1816 N.ar    1  UNL1       -0.1817
     10 N          -4.2298   -0.1807   -0.0154 N.ar    1  UNL1       -0.2841
     11 C          -3.1279    0.2216    0.6876 C.ar    1  UNL1        0.0315
     12 C          -0.2116    0.7028    1.4156 C.ar    1  UNL1        0.0561
     13 N           1.0952    0.9004    1.7070 N.ar    1  UNL1       -0.2310
     14 C           1.9848    0.4682    0.8056 C.ar    1  UNL1        0.1977
     15 N           3.2865    0.6497    1.0660 N.ar    1  UNL1       -0.2316
     16 H           5.2115    0.3586    0.3653 H       1  UNL1        0.0846
     17 H           4.4565   -0.7646   -1.7609 H       1  UNL1        0.0846
     18 H          -2.0824   -1.1631   -2.0729 H       1  UNL1        0.0854
     19 H          -5.2081   -0.0855    0.2384 H       1  UNL1        0.1882
     20 H          -3.2403    0.7106    1.6444 H       1  UNL1        0.0830
     21 H          -0.9026    1.0654    2.1680 H       1  UNL1        0.0852
@<TRIPOS>BOND
     1     1     2   ar
     2     2     3   ar
     3     3     4   ar
     4     4     5   ar
     5     5     6   ar
     6     6     7    1
     7     7     8   ar
     8     8     9   ar
     9     9    10   ar
    10    10    11   ar
    11     6    12   ar
    12    12    13   ar
    13    13    14   ar
    14    14    15   ar
    15    15     1   ar
    16    14     4   ar
    17    11     7   ar
    18     1    16    1
    19     2    17    1
    20     8    18    1
    21    10    19    1
    22    11    20    1
    23    12    21    1
