@<TRIPOS>MOLECULE
*****
 28 32 0 0 0
SMALL
GASTEIGER

@<TRIPOS>ATOM
      1 C           6.1037    0.2726    0.6115 C.ar    1  UNL1        0.0482
      2 C           5.4302    0.3158    1.8119 C.ar    1  UNL1        0.0482
      3 N           4.0842    0.2657    1.8801 N.ar    1  UNL1       -0.2316
      4 C           3.4192    0.1712    0.7215 C.ar    1  UNL1        0.1984
      5 N           2.0825    0.1205    0.7715 N.ar    1  UNL1       -0.2183
      6 C           1.4212    0.0250   -0.4061 C.ar    1  UNL1        0.1461
      7 C          -0.0349   -0.0312   -0.3691 C.ar    1  UNL1        0.2486
      8 N          -0.8880   -0.1245   -1.3787 N.ar    1  UNL1       -0.2075
      9 C          -2.1166   -0.1382   -0.7694 C.ar    1  UNL1        0.1135
     10 C          -3.4105   -0.2206   -1.2901 C.ar    1  UNL1        0.0120
     11 C          -4.4648   -0.2101   -0.3869 C.ar    1  UNL1        0.1573
     12 O          -5.8008   -0.2792   -0.6512 O.2     1  UNL1       -0.4424
     13 C          -6.3728   -0.2297    0.5866 C.ar    1  UNL1        0.1831
     14 N          -5.5352   -0.1368    1.5980 N.ar    1  UNL1       -0.2160
     15 C          -4.3066   -0.1231    0.9907 C.ar    1  UNL1        0.1129
     16 C          -3.0123   -0.0407    1.5102 C.ar    1  UNL1        0.0120
     17 C          -1.9586   -0.0513    0.6065 C.ar    1  UNL1        0.1580
     18 O          -0.6253    0.0177    0.8714 O.2     1  UNL1       -0.4339
     19 C           2.1040   -0.0179   -1.6080 C.ar    1  UNL1        0.0607
     20 N           3.4544    0.0320   -1.6834 N.ar    1  UNL1       -0.2308
     21 C           4.1201    0.1264   -0.5255 C.ar    1  UNL1        0.1978
     22 N           5.4579    0.1776   -0.5683 N.ar    1  UNL1       -0.2316
     23 H           7.1862    0.3130    0.5615 H       1  UNL1        0.0846
     24 H           5.9536    0.3922    2.7585 H       1  UNL1        0.0846
     25 H          -3.5834   -0.2900   -2.3575 H       1  UNL1        0.0677
     26 H          -7.4527   -0.2711    0.6188 H       1  UNL1        0.1255
     27 H          -2.8395    0.0287    2.5779 H       1  UNL1        0.0677
     28 H           1.5848   -0.0943   -2.5591 H       1  UNL1        0.0854
@<TRIPOS>BOND
     1     1     2   ar
     2     2     3   ar
     3     3     4   ar
     4     4     5   ar
     5     5     6   ar
     6     6     7    1
     7     7     8   ar
     8     8     9   ar
     9     9    10   ar
    10    10    11   ar
    11    11    12   ar
    12    12    13   ar
    13    13    14   ar
    14    14    15   ar
    15    15    16   ar
    16    16    17   ar
    17    17    18   ar
    18     6    19   ar
    19    19    20   ar
    20    20    21   ar
    21    21    22   ar
    22    22     1   ar
    23    21     4   ar
    24    18     7   ar
    25    17     9   ar
    26    15    11   ar
    27     1    23    1
    28     2    24    1
    29    10    25    1
    30    13    26    1
    31    16    27    1
    32    19    28    1
