@<TRIPOS>MOLECULE
*****
 28 32 0 0 0
SMALL
GASTEIGER

@<TRIPOS>ATOM
      1 C           6.3093    0.3625    0.0183 C.ar    1  UNL1        0.0482
      2 C           5.7744    0.6574   -1.2159 C.ar    1  UNL1        0.0482
      3 N           4.4447    0.6455   -1.4417 N.ar    1  UNL1       -0.2316
      4 C           3.6550    0.3321   -0.4066 C.ar    1  UNL1        0.1983
      5 N           2.3325    0.3160   -0.6148 N.ar    1  UNL1       -0.2211
      6 C           1.5395   -0.0016    0.4355 C.ar    1  UNL1        0.1164
      7 C           0.0848   -0.0250    0.2287 C.ar    1  UNL1        0.1292
      8 N          -0.7917   -0.3188    1.1720 N.ar    1  UNL1       -0.2374
      9 C          -2.0804   -0.2565    0.6717 C.ar    1  UNL1        0.0801
     10 C          -3.2578   -0.5068    1.3879 C.ar    1  UNL1       -0.0194
     11 C          -4.4991   -0.4084    0.7593 C.ar    1  UNL1        0.0410
     12 S          -6.0787   -0.6595    1.3967 S.2     1  UNL1       -0.0753
     13 C          -6.7438   -0.2931   -0.1378 C.ar    1  UNL1        0.0659
     14 N          -5.8883    0.0018   -1.0900 N.ar    1  UNL1       -0.2474
     15 C          -4.5997   -0.0609   -0.5883 C.ar    1  UNL1        0.0793
     16 C          -3.4211    0.1890   -1.3026 C.ar    1  UNL1       -0.0194
     17 C          -2.1805    0.0903   -0.6730 C.ar    1  UNL1        0.0417
     18 S          -0.6048    0.3403   -1.3070 S.2     1  UNL1       -0.0656
     19 C           2.0865   -0.2967    1.6729 C.ar    1  UNL1        0.0581
     20 N           3.4199   -0.2870    1.9079 N.ar    1  UNL1       -0.2309
     21 C           4.2113    0.0258    0.8753 C.ar    1  UNL1        0.1977
     22 N           5.5358    0.0441    1.0757 N.ar    1  UNL1       -0.2316
     23 H           7.3791    0.3732    0.1953 H       1  UNL1        0.0846
     24 H           6.4003    0.9130   -2.0638 H       1  UNL1        0.0846
     25 H          -3.1906   -0.7781    2.4377 H       1  UNL1        0.0651
     26 H          -7.8127   -0.3056   -0.3075 H       1  UNL1        0.0907
     27 H          -3.4890    0.4603   -2.3526 H       1  UNL1        0.0651
     28 H           1.4651   -0.5534    2.5261 H       1  UNL1        0.0853
@<TRIPOS>BOND
     1     1     2   ar
     2     2     3   ar
     3     3     4   ar
     4     4     5   ar
     5     5     6   ar
     6     6     7    1
     7     7     8   ar
     8     8     9   ar
     9     9    10   ar
    10    10    11   ar
    11    11    12   ar
    12    12    13   ar
    13    13    14   ar
    14    14    15   ar
    15    15    16   ar
    16    16    17   ar
    17    17    18   ar
    18     6    19   ar
    19    19    20   ar
    20    20    21   ar
    21    21    22   ar
    22    22     1   ar
    23    21     4   ar
    24    18     7   ar
    25    17     9   ar
    26    15    11   ar
    27     1    23    1
    28     2    24    1
    29    10    25    1
    30    13    26    1
    31    16    27    1
    32    19    28    1
