@<TRIPOS>MOLECULE
*****
 28 32 0 0 0
SMALL
GASTEIGER

@<TRIPOS>ATOM
      1 C           6.0851    0.3227    0.0118 C.ar    1  UNL1        0.0482
      2 C           5.4786    0.4160    1.2450 C.ar    1  UNL1        0.0482
      3 N           4.1376    0.3769    1.3902 N.ar    1  UNL1       -0.2316
      4 C           3.4123    0.2420    0.2735 C.ar    1  UNL1        0.1984
      5 N           2.0804    0.2020    0.4061 N.ar    1  UNL1       -0.2201
      6 C           1.3617    0.0654   -0.7319 C.ar    1  UNL1        0.1266
      7 C          -0.0825    0.0246   -0.5597 C.ar    1  UNL1        0.1621
      8 N          -0.9981   -0.1019   -1.5088 N.ar    1  UNL1       -0.2052
      9 C          -2.1995   -0.0870   -0.8531 C.ar    1  UNL1        0.1998
     10 N          -3.4357   -0.1876   -1.3979 N.ar    1  UNL1       -0.2020
     11 C          -4.4490   -0.1421   -0.4987 C.ar    1  UNL1        0.1992
     12 N          -5.7927   -0.2189   -0.7473 N.ar    1  UNL1       -0.2152
     13 C          -6.3587   -0.1283    0.4395 C.ar    1  UNL1        0.0973
     14 N          -5.4367    0.0038    1.4454 N.ar    1  UNL1       -0.3279
     15 C          -4.2051   -0.0027    0.8651 C.ar    1  UNL1        0.1791
     16 N          -2.9930    0.1007    1.4484 N.ar    1  UNL1       -0.2052
     17 C          -2.0168    0.0508    0.5188 C.ar    1  UNL1        0.1796
     18 N          -0.6706    0.1199    0.6862 N.ar    1  UNL1       -0.3201
     19 C           1.9661   -0.0287   -1.9713 C.ar    1  UNL1        0.0591
     20 N           3.3101    0.0099   -2.1232 N.ar    1  UNL1       -0.2309
     21 C           4.0414    0.1448   -1.0096 C.ar    1  UNL1        0.1977
     22 N           5.3751    0.1864   -1.1262 N.ar    1  UNL1       -0.2316
     23 H           7.1634    0.3548   -0.0995 H       1  UNL1        0.0846
     24 H           6.0550    0.5257    2.1571 H       1  UNL1        0.0846
     25 H          -7.4236   -0.1520    0.6329 H       1  UNL1        0.1028
     26 H          -5.6218    0.0905    2.4333 H       1  UNL1        0.1683
     27 H          -0.1703    0.2226    1.5578 H       1  UNL1        0.1689
     28 H           1.3872   -0.1384   -2.8837 H       1  UNL1        0.0853
@<TRIPOS>BOND
     1     1     2   ar
     2     2     3   ar
     3     3     4   ar
     4     4     5   ar
     5     5     6   ar
     6     6     7    1
     7     7     8   ar
     8     8     9   ar
     9     9    10   ar
    10    10    11   ar
    11    11    12   ar
    12    12    13   ar
    13    13    14   ar
    14    14    15   ar
    15    15    16   ar
    16    16    17   ar
    17    17    18   ar
    18     6    19   ar
    19    19    20   ar
    20    20    21   ar
    21    21    22   ar
    22    22     1   ar
    23    21     4   ar
    24    18     7   ar
    25    17     9   ar
    26    15    11   ar
    27     1    23    1
    28     2    24    1
    29    13    25    1
    30    14    26    1
    31    18    27    1
    32    19    28    1
