@<TRIPOS>MOLECULE
*****
 42 46 0 0 0
SMALL
GASTEIGER

@<TRIPOS>ATOM
      1 C           6.6198   -0.8752    0.5908 C.ar    1  UNL1       -0.0429
      2 C           7.0040    0.1747   -0.2178 C.ar    1  UNL1        0.0300
      3 N           6.1384    0.9986   -0.8476 N.ar    1  UNL1       -0.2357
      4 C           4.8274    0.8021   -0.6912 C.ar    1  UNL1        0.1597
      5 N           3.9857    1.6240   -1.3176 N.ar    1  UNL1       -0.2351
      6 C           2.6516    1.4342   -1.1660 C.ar    1  UNL1        0.0377
      7 C           2.0683    0.4359   -0.3945 C.ar    1  UNL1        0.0009
      8 C           0.6124    0.2921   -0.2712 C.ar    1  UNL1       -0.0158
      9 C          -0.0183   -0.9340   -0.5193 C.ar    1  UNL1       -0.0490
     10 C          -1.4109   -1.0832   -0.3891 C.ar    1  UNL1       -0.0255
     11 C          -2.2194    0.0113   -0.0305 C.ar    1  UNL1        0.0361
     12 C          -1.5913    1.2482    0.2054 C.ar    1  UNL1       -0.0255
     13 C          -0.1945    1.3758    0.0992 C.ar    1  UNL1       -0.0490
     14 C          -2.4070    2.4500    0.6101 C.3     1  UNL1       -0.0245
     15 C          -3.8477    2.3163    0.1382 C.3     1  UNL1       -0.0332
     16 C          -4.4096    0.9760    0.5854 C.3     1  UNL1        0.0125
     17 N          -3.5953   -0.1255    0.0877 N.pl3   1  UNL1       -0.3294
     18 C          -4.2512   -1.3667   -0.3029 C.3     1  UNL1        0.0125
     19 C          -3.3778   -2.5685    0.0212 C.3     1  UNL1       -0.0332
     20 C          -2.0327   -2.4265   -0.6764 C.3     1  UNL1       -0.0245
     21 C           2.9571   -0.4203    0.2562 C.ar    1  UNL1       -0.0419
     22 C           4.3440   -0.2463    0.1155 C.ar    1  UNL1        0.0198
     23 C           5.2610   -1.0891    0.7605 C.ar    1  UNL1       -0.0496
     24 H           7.3568   -1.5063    1.0737 H       1  UNL1        0.0633
     25 H           8.0539    0.3946   -0.3909 H       1  UNL1        0.0830
     26 H           2.0398    2.1422   -1.7213 H       1  UNL1        0.0836
     27 H           0.5762   -1.7932   -0.8257 H       1  UNL1        0.0627
     28 H           0.2624    2.3404    0.3156 H       1  UNL1        0.0627
     29 H          -1.9771    3.3627    0.1810 H       1  UNL1        0.0314
     30 H          -2.3735    2.5443    1.7023 H       1  UNL1        0.0314
     31 H          -3.8896    2.3878   -0.9565 H       1  UNL1        0.0283
     32 H          -4.4527    3.1358    0.5413 H       1  UNL1        0.0283
     33 H          -4.4530    0.9259    1.6803 H       1  UNL1        0.0464
     34 H          -5.4389    0.8852    0.2183 H       1  UNL1        0.0464
     35 H          -4.4757   -1.3347   -1.3760 H       1  UNL1        0.0464
     36 H          -5.2074   -1.4739    0.2232 H       1  UNL1        0.0464
     37 H          -3.8704   -3.4938   -0.2973 H       1  UNL1        0.0283
     38 H          -3.2293   -2.6352    1.1069 H       1  UNL1        0.0283
     39 H          -2.1569   -2.5294   -1.7612 H       1  UNL1        0.0314
     40 H          -1.3707   -3.2316   -0.3365 H       1  UNL1        0.0314
     41 H           2.5723   -1.2187    0.8871 H       1  UNL1        0.0631
     42 H           4.9202   -1.9059    1.3910 H       1  UNL1        0.0625
@<TRIPOS>BOND
     1     1     2   ar
     2     2     3   ar
     3     3     4   ar
     4     4     5   ar
     5     5     6   ar
     6     6     7   ar
     7     7     8    1
     8     8     9   ar
     9     9    10   ar
    10    10    11   ar
    11    11    12   ar
    12    12    13   ar
    13    12    14    1
    14    14    15    1
    15    15    16    1
    16    16    17    1
    17    17    18    1
    18    18    19    1
    19    19    20    1
    20     7    21   ar
    21    21    22   ar
    22    22    23   ar
    23    23     1   ar
    24    22     4   ar
    25    13     8   ar
    26    20    10    1
    27    17    11    1
    28     1    24    1
    29     2    25    1
    30     6    26    1
    31     9    27    1
    32    13    28    1
    33    14    29    1
    34    14    30    1
    35    15    31    1
    36    15    32    1
    37    16    33    1
    38    16    34    1
    39    18    35    1
    40    18    36    1
    41    19    37    1
    42    19    38    1
    43    20    39    1
    44    20    40    1
    45    21    41    1
    46    23    42    1
