@<TRIPOS>MOLECULE
*****
 33 37 0 0 0
SMALL
GASTEIGER

@<TRIPOS>ATOM
      1 C           6.0679   -0.2605    0.7134 C.ar    1  UNL1       -0.0429
      2 C           6.3865    0.5562   -0.3519 C.ar    1  UNL1        0.0300
      3 N           5.4719    1.1131   -1.1755 N.ar    1  UNL1       -0.2357
      4 C           4.1772    0.8705   -0.9619 C.ar    1  UNL1        0.1597
      5 N           3.2864    1.4262   -1.7818 N.ar    1  UNL1       -0.2350
      6 C           1.9667    1.1874   -1.5756 C.ar    1  UNL1        0.0391
      7 C           1.4430    0.3954   -0.5609 C.ar    1  UNL1        0.0171
      8 C           0.0020    0.1671   -0.3791 C.ar    1  UNL1        0.0490
      9 C          -0.6795   -0.5852    0.5688 C.ar    1  UNL1       -0.0286
     10 C          -2.0763   -0.4912    0.3233 C.ar    1  UNL1        0.0010
     11 C          -3.2214   -1.0257    0.9401 C.ar    1  UNL1       -0.0418
     12 C          -4.4977   -0.7334    0.4397 C.ar    1  UNL1        0.0208
     13 C          -5.8334   -1.0730    0.7794 C.ar    1  UNL1       -0.0161
     14 C          -6.6411   -0.4391   -0.1380 C.ar    1  UNL1        0.0931
     15 O          -5.8950    0.2715   -1.0248 O.2     1  UNL1       -0.4629
     16 C          -4.5935    0.0919   -0.6728 C.ar    1  UNL1        0.1368
     17 C          -3.4874    0.6365   -1.3065 C.ar    1  UNL1        0.0051
     18 C          -2.2303    0.3302   -0.7889 C.ar    1  UNL1        0.0505
     19 N          -0.9736    0.7123   -1.1923 N.ar    1  UNL1       -0.3540
     20 C           2.3839   -0.1812    0.2912 C.ar    1  UNL1       -0.0405
     21 C           3.7584    0.0491    0.1010 C.ar    1  UNL1        0.0198
     22 C           4.7257   -0.5187    0.9437 C.ar    1  UNL1       -0.0496
     23 H           6.8419   -0.6824    1.3442 H       1  UNL1        0.0633
     24 H           7.4201    0.7969   -0.5852 H       1  UNL1        0.0830
     25 H           1.3329    1.6885   -2.3003 H       1  UNL1        0.0837
     26 H          -0.2275   -1.1549    1.3699 H       1  UNL1        0.0645
     27 H          -3.1151   -1.6686    1.8094 H       1  UNL1        0.0631
     28 H          -6.1662   -1.7019    1.5923 H       1  UNL1        0.0655
     29 H          -7.7106   -0.3945   -0.2894 H       1  UNL1        0.1029
     30 H          -3.6099    1.2765   -2.1734 H       1  UNL1        0.0675
     31 H          -0.8074    1.3151   -1.9846 H       1  UNL1        0.1659
     32 H           2.0642   -0.8159    1.1129 H       1  UNL1        0.0632
     33 H           4.4369   -1.1578    1.7738 H       1  UNL1        0.0625
@<TRIPOS>BOND
     1     1     2   ar
     2     2     3   ar
     3     3     4   ar
     4     4     5   ar
     5     5     6   ar
     6     6     7   ar
     7     7     8    1
     8     8     9   ar
     9     9    10   ar
    10    10    11   ar
    11    11    12   ar
    12    12    13   ar
    13    13    14   ar
    14    14    15   ar
    15    15    16   ar
    16    16    17   ar
    17    17    18   ar
    18    18    19   ar
    19     7    20   ar
    20    20    21   ar
    21    21    22   ar
    22    22     1   ar
    23    21     4   ar
    24    19     8   ar
    25    18    10   ar
    26    16    12   ar
    27     1    23    1
    28     2    24    1
    29     6    25    1
    30     9    26    1
    31    11    27    1
    32    13    28    1
    33    14    29    1
    34    17    30    1
    35    19    31    1
    36    20    32    1
    37    22    33    1
