@<TRIPOS>MOLECULE
*****
 32 36 0 0 0
SMALL
GASTEIGER

@<TRIPOS>ATOM
      1 C           6.0951   -0.4934   -0.3386 C.ar    1  UNL1       -0.0429
      2 C           6.3107    0.2106    0.8282 C.ar    1  UNL1        0.0300
      3 N           5.3224    0.7132    1.5994 N.ar    1  UNL1       -0.2357
      4 C           4.0540    0.5287    1.2283 C.ar    1  UNL1        0.1597
      5 N           3.0896    1.0302    1.9989 N.ar    1  UNL1       -0.2350
      6 C           1.7950    0.8492    1.6320 C.ar    1  UNL1        0.0406
      7 C           1.3778    0.1701    0.4953 C.ar    1  UNL1        0.0361
      8 C          -0.0299    0.0103    0.1570 C.ar    1  UNL1        0.1377
      9 C          -0.7137   -0.5992   -0.8799 C.ar    1  UNL1       -0.0079
     10 C          -2.0984   -0.4046   -0.6354 C.ar    1  UNL1        0.0243
     11 C          -3.2967   -0.7528   -1.2714 C.ar    1  UNL1       -0.0080
     12 C          -4.4948   -0.3568   -0.6864 C.ar    1  UNL1        0.1356
     13 O          -5.7427   -0.6083   -1.1666 O.2     1  UNL1       -0.4629
     14 C          -6.6203   -0.0472   -0.2933 C.ar    1  UNL1        0.0931
     15 C          -5.9519    0.5632    0.7442 C.ar    1  UNL1       -0.0160
     16 C          -4.5680    0.3680    0.4989 C.ar    1  UNL1        0.0236
     17 C          -3.3690    0.7157    1.1340 C.ar    1  UNL1       -0.0080
     18 C          -2.1716    0.3191    0.5480 C.ar    1  UNL1        0.1365
     19 O          -0.9250    0.5701    1.0272 O.2     1  UNL1       -0.4548
     20 C           2.3901   -0.3522   -0.3069 C.ar    1  UNL1       -0.0389
     21 C           3.7387   -0.1782    0.0513 C.ar    1  UNL1        0.0199
     22 C           4.7815   -0.6913   -0.7343 C.ar    1  UNL1       -0.0496
     23 H           6.9257   -0.8757   -0.9208 H       1  UNL1        0.0633
     24 H           7.3170    0.3994    1.1923 H       1  UNL1        0.0830
     25 H           1.0787    1.2924    2.3206 H       1  UNL1        0.0837
     26 H          -0.2742   -1.1234   -1.7162 H       1  UNL1        0.0661
     27 H          -3.3015   -1.3173   -2.1979 H       1  UNL1        0.0661
     28 H          -7.6655   -0.1654   -0.5437 H       1  UNL1        0.1029
     29 H          -6.4068    1.0842    1.5745 H       1  UNL1        0.0655
     30 H          -3.3654    1.2803    2.0605 H       1  UNL1        0.0661
     31 H           2.1449   -0.8972   -1.2145 H       1  UNL1        0.0632
     32 H           4.5744   -1.2416   -1.6482 H       1  UNL1        0.0625
@<TRIPOS>BOND
     1     1     2   ar
     2     2     3   ar
     3     3     4   ar
     4     4     5   ar
     5     5     6   ar
     6     6     7   ar
     7     7     8    1
     8     8     9   ar
     9     9    10   ar
    10    10    11   ar
    11    11    12   ar
    12    12    13   ar
    13    13    14   ar
    14    14    15   ar
    15    15    16   ar
    16    16    17   ar
    17    17    18   ar
    18    18    19   ar
    19     7    20   ar
    20    20    21   ar
    21    21    22   ar
    22    22     1   ar
    23    21     4   ar
    24    19     8   ar
    25    18    10   ar
    26    16    12   ar
    27     1    23    1
    28     2    24    1
    29     6    25    1
    30     9    26    1
    31    11    27    1
    32    14    28    1
    33    15    29    1
    34    17    30    1
    35    20    31    1
    36    22    32    1
