@<TRIPOS>MOLECULE
*****
 30 33 0 0 0
SMALL
GASTEIGER

@<TRIPOS>ATOM
      1 C           5.3195   -0.8817   -0.1964 C.ar    1  UNL1       -0.0429
      2 C           5.6624    0.4544   -0.1991 C.ar    1  UNL1        0.0300
      3 N           4.7650    1.4629   -0.1623 N.ar    1  UNL1       -0.2357
      4 C           3.4635    1.1704   -0.1205 C.ar    1  UNL1        0.1597
      5 N           2.5909    2.1750   -0.0846 N.ar    1  UNL1       -0.2350
      6 C           1.2644    1.8899   -0.0419 C.ar    1  UNL1        0.0391
      7 C           0.7169    0.6119   -0.0320 C.ar    1  UNL1        0.0171
      8 C          -0.7364    0.3978    0.0154 C.ar    1  UNL1        0.0489
      9 C          -1.7813    1.3109    0.0565 C.ar    1  UNL1       -0.0286
     10 C          -3.0147    0.6051    0.0932 C.ar    1  UNL1        0.0003
     11 C          -4.3670    0.9932    0.1412 C.ar    1  UNL1       -0.0526
     12 C          -5.3601    0.0072    0.1680 C.ar    1  UNL1       -0.0611
     13 C          -5.0204   -1.3440    0.1477 C.ar    1  UNL1       -0.0598
     14 C          -3.6833   -1.7506    0.1001 C.ar    1  UNL1       -0.0378
     15 C          -2.7049   -0.7498    0.0739 C.ar    1  UNL1        0.0469
     16 N          -1.3336   -0.8474    0.0272 N.ar    1  UNL1       -0.3541
     17 C           1.6384   -0.4334   -0.0698 C.ar    1  UNL1       -0.0405
     18 C           3.0196   -0.1655   -0.1144 C.ar    1  UNL1        0.0198
     19 C           3.9703   -1.1969   -0.1532 C.ar    1  UNL1       -0.0496
     20 H           6.0807   -1.6528   -0.2270 H       1  UNL1        0.0633
     21 H           6.7025    0.7674   -0.2319 H       1  UNL1        0.0830
     22 H           0.6368    2.7765   -0.0150 H       1  UNL1        0.0837
     23 H          -1.6843    2.3887    0.0604 H       1  UNL1        0.0645
     24 H          -4.6394    2.0443    0.1573 H       1  UNL1        0.0624
     25 H          -6.4063    0.3010    0.2051 H       1  UNL1        0.0618
     26 H          -5.8071   -2.0949    0.1691 H       1  UNL1        0.0618
     27 H          -3.4228   -2.8036    0.0844 H       1  UNL1        0.0638
     28 H          -0.8444   -1.7287    0.0049 H       1  UNL1        0.1659
     29 H           1.3103   -1.4675   -0.0657 H       1  UNL1        0.0632
     30 H           3.6646   -2.2397   -0.1498 H       1  UNL1        0.0625
@<TRIPOS>BOND
     1     1     2   ar
     2     2     3   ar
     3     3     4   ar
     4     4     5   ar
     5     5     6   ar
     6     6     7   ar
     7     7     8    1
     8     8     9   ar
     9     9    10   ar
    10    10    11   ar
    11    11    12   ar
    12    12    13   ar
    13    13    14   ar
    14    14    15   ar
    15    15    16   ar
    16     7    17   ar
    17    17    18   ar
    18    18    19   ar
    19    19     1   ar
    20    18     4   ar
    21    16     8   ar
    22    15    10   ar
    23     1    20    1
    24     2    21    1
    25     6    22    1
    26     9    23    1
    27    11    24    1
    28    12    25    1
    29    13    26    1
    30    14    27    1
    31    16    28    1
    32    17    29    1
    33    19    30    1
