@<TRIPOS>MOLECULE
*****
 29 32 0 0 0
SMALL
GASTEIGER

@<TRIPOS>ATOM
      1 C          -5.4596    0.0387    0.8426 C.ar    1  UNL1       -0.0429
      2 C          -5.6976    0.1496   -0.5117 C.ar    1  UNL1        0.0300
      3 N          -4.7240    0.2067   -1.4462 N.ar    1  UNL1       -0.2357
      4 C          -3.4491    0.1541   -1.0553 C.ar    1  UNL1        0.1597
      5 N          -2.4989    0.2113   -1.9859 N.ar    1  UNL1       -0.2351
      6 C          -1.1976    0.1587   -1.6003 C.ar    1  UNL1        0.0382
      7 C          -0.7449    0.0476   -0.2895 C.ar    1  UNL1        0.0075
      8 C           0.7005   -0.0018    0.0245 C.ar    1  UNL1        0.0219
      9 C           1.7826    0.0479   -0.8393 C.ar    1  UNL1       -0.0391
     10 C           3.0613   -0.0252   -0.1894 C.ar    1  UNL1       -0.0102
     11 C           4.3708   -0.0050   -0.7272 C.ar    1  UNL1       -0.0535
     12 C           5.4827   -0.0905    0.1160 C.ar    1  UNL1       -0.0611
     13 C           5.3130   -0.1960    1.4894 C.ar    1  UNL1       -0.0607
     14 C           4.0324   -0.2181    2.0464 C.ar    1  UNL1       -0.0474
     15 C           2.9161   -0.1316    1.1917 C.ar    1  UNL1        0.0199
     16 S           1.2609   -0.1390    1.6429 S.2     1  UNL1       -0.0882
     17 C          -1.7532   -0.0113    0.6754 C.ar    1  UNL1       -0.0414
     18 C          -3.1105    0.0410    0.3051 C.ar    1  UNL1        0.0198
     19 C          -4.1384   -0.0166    1.2582 C.ar    1  UNL1       -0.0496
     20 H          -6.2783   -0.0033    1.5517 H       1  UNL1        0.0633
     21 H          -6.7107    0.1976   -0.9016 H       1  UNL1        0.0830
     22 H          -0.5102    0.2132   -2.4398 H       1  UNL1        0.0836
     23 H           1.6902    0.1343   -1.9146 H       1  UNL1        0.0635
     24 H           4.5163    0.0773   -1.8015 H       1  UNL1        0.0624
     25 H           6.4838   -0.0741   -0.3083 H       1  UNL1        0.0618
     26 H           6.1825   -0.2621    2.1393 H       1  UNL1        0.0618
     27 H           3.9018   -0.3007    3.1217 H       1  UNL1        0.0629
     28 H          -1.5094   -0.0987    1.7308 H       1  UNL1        0.0631
     29 H          -3.9126   -0.1040    2.3178 H       1  UNL1        0.0625
@<TRIPOS>BOND
     1     1     2   ar
     2     2     3   ar
     3     3     4   ar
     4     4     5   ar
     5     5     6   ar
     6     6     7   ar
     7     7     8    1
     8     8     9   ar
     9     9    10   ar
    10    10    11   ar
    11    11    12   ar
    12    12    13   ar
    13    13    14   ar
    14    14    15   ar
    15    15    16   ar
    16     7    17   ar
    17    17    18   ar
    18    18    19   ar
    19    19     1   ar
    20    18     4   ar
    21    16     8   ar
    22    15    10   ar
    23     1    20    1
    24     2    21    1
    25     6    22    1
    26     9    23    1
    27    11    24    1
    28    12    25    1
    29    13    26    1
    30    14    27    1
    31    17    28    1
    32    19    29    1
