@<TRIPOS>MOLECULE
*****
 40 45 0 0 0
SMALL
GASTEIGER

@<TRIPOS>ATOM
      1 SI         -6.4905    0.8875   -1.2778 Si      1  UNL1        0.0000
      2 C          -6.4651   -0.1144    0.3024 C.2     1  UNL1        0.0000
      3 C          -5.2000   -0.3736    0.6853 C.ar    1  UNL1        0.0000
      4 C          -4.8444   -1.1372    1.8827 C.ar    1  UNL1        0.0000
      5 C          -3.5496   -1.3535    2.1973 C.ar    1  UNL1        0.0000
      6 C          -2.5833   -0.8057    1.3131 C.ar    1  UNL1        0.0000
      7 N          -1.2400   -0.9425    1.5015 N.ar    1  UNL1        0.0000
      8 C          -0.5656   -0.3039    0.4799 C.ar    1  UNL1        0.0000
      9 C           0.7872   -0.1532    0.2141 C.ar    1  UNL1        0.0000
     10 SI          2.2748   -0.7288    1.0920 Si      1  UNL1        0.0000
     11 C           3.3726    0.1100   -0.2546 C.2     1  UNL1        0.0000
     12 C           2.5736    0.7031   -1.1741 C.2     1  UNL1        0.0000
     13 C           1.1272    0.5670   -0.9294 C.ar    1  UNL1        0.0000
     14 N           0.2508    1.1187   -1.7820 N.ar    1  UNL1        0.0000
     15 C          -1.0739    0.9680   -1.5168 C.ar    1  UNL1        0.0000
     16 C          -1.5226    0.2584   -0.3878 C.ar    1  UNL1        0.0000
     17 C          -2.7907   -0.0712    0.1585 C.ar    1  UNL1        0.0000
     18 C          -4.1469    0.1862   -0.2196 C.ar    1  UNL1        0.0000
     19 C          -4.6191    0.8651   -1.2811 C.2     1  UNL1        0.0000
     20 C           4.8192    0.0601   -0.2054 C.2     1  UNL1        0.0000
     21 C           5.6304   -0.5305    0.7037 C.2     1  UNL1        0.0000
     22 C           7.0637   -0.4060    0.4804 C.2     1  UNL1        0.0000
     23 C           7.4235    0.2872   -0.6124 C.2     1  UNL1        0.0000
     24 SI          5.9239    0.9034   -1.5479 Si      1  UNL1        0.0000
     25 H          -7.0396    2.2493   -1.0727 H       1  UNL1        0.0000
     26 H          -7.0673    0.1314   -2.4152 H       1  UNL1        0.0000
     27 H          -7.3756   -0.4149    0.7953 H       1  UNL1        0.0000
     28 H          -5.6409   -1.5239    2.5092 H       1  UNL1        0.0000
     29 H          -3.2675   -1.9165    3.0798 H       1  UNL1        0.0000
     30 H          -0.8035   -1.4342    2.2683 H       1  UNL1        0.0000
     31 H           2.4494   -0.1062    2.4299 H       1  UNL1        0.0000
     32 H           2.4220   -2.2074    1.0989 H       1  UNL1        0.0000
     33 H           2.8870    1.2535   -2.0495 H       1  UNL1        0.0000
     34 H          -1.7484    1.4276   -2.2283 H       1  UNL1        0.0000
     35 H          -4.0625    1.3528   -2.0619 H       1  UNL1        0.0000
     36 H           5.2955   -1.0817    1.5735 H       1  UNL1        0.0000
     37 H           7.7721   -0.8535    1.1673 H       1  UNL1        0.0000
     38 H           8.4272    0.4903   -0.9505 H       1  UNL1        0.0000
     39 H           5.8118    2.3832   -1.5186 H       1  UNL1        0.0000
     40 H           5.7850    0.2563   -2.8766 H       1  UNL1        0.0000
@<TRIPOS>BOND
     1     1     2    1
     2     2     3    2
     3     3     4   ar
     4     4     5   ar
     5     5     6   ar
     6     6     7   ar
     7     7     8   ar
     8     8     9   ar
     9     9    10    1
    10    10    11    1
    11    11    12    2
    12    12    13    1
    13    13    14   ar
    14    14    15   ar
    15    15    16   ar
    16    16    17   ar
    17    17    18   ar
    18    18    19    2
    19    11    20    1
    20    20    21    2
    21    21    22    1
    22    22    23    2
    23    23    24    1
    24    19     1    1
    25    24    20    1
    26    18     3   ar
    27    17     6   ar
    28    16     8   ar
    29    13     9   ar
    30     1    25    1
    31     1    26    1
    32     2    27    1
    33     4    28    1
    34     5    29    1
    35     7    30    1
    36    10    31    1
    37    10    32    1
    38    12    33    1
    39    15    34    1
    40    19    35    1
    41    21    36    1
    42    22    37    1
    43    23    38    1
    44    24    39    1
    45    24    40    1
