@<TRIPOS>MOLECULE
*****
 31 35 0 0 0
SMALL
GASTEIGER

@<TRIPOS>ATOM
      1 C           5.6376   -0.2586   -1.4451 C.ar    1  UNL1       -0.0429
      2 C           6.1302   -0.3171   -0.1579 C.ar    1  UNL1        0.0300
      3 N           5.3540   -0.3043    0.9472 N.ar    1  UNL1       -0.2357
      4 C           4.0291   -0.2311    0.8070 C.ar    1  UNL1        0.1597
      5 N           3.2767   -0.2194    1.9053 N.ar    1  UNL1       -0.2350
      6 C           1.9280   -0.1452    1.7767 C.ar    1  UNL1        0.0391
      7 C           1.2391   -0.0784    0.5708 C.ar    1  UNL1        0.0172
      8 C          -0.2282   -0.0000    0.5247 C.ar    1  UNL1        0.0516
      9 C          -1.1646    0.0230    1.5582 C.ar    1  UNL1       -0.0087
     10 C          -2.4557    0.1052    0.9931 C.ar    1  UNL1        0.1089
     11 N          -3.6890    0.1556    1.5624 N.ar    1  UNL1       -0.2387
     12 C          -4.7220    0.2323    0.6796 C.ar    1  UNL1        0.1293
     13 C          -6.1175    0.3010    0.8684 C.ar    1  UNL1        0.0039
     14 C          -6.6663    0.3619   -0.3951 C.ar    1  UNL1        0.0966
     15 O          -5.6970    0.3352   -1.3529 O.2     1  UNL1       -0.4439
     16 C          -4.5062    0.2560   -0.6982 C.ar    1  UNL1        0.2478
     17 N          -3.2930    0.2071   -1.2871 N.ar    1  UNL1       -0.1914
     18 C          -2.2958    0.1317   -0.3838 C.ar    1  UNL1        0.1609
     19 N          -0.9597    0.0683   -0.6511 N.ar    1  UNL1       -0.3377
     20 C           2.0344   -0.0912   -0.5742 C.ar    1  UNL1       -0.0405
     21 C           3.4362   -0.1676   -0.4681 C.ar    1  UNL1        0.0198
     22 C           4.2624   -0.1823   -1.6022 C.ar    1  UNL1       -0.0496
     23 H           6.3055   -0.2721   -2.2988 H       1  UNL1        0.0633
     24 H           7.1983   -0.3781    0.0327 H       1  UNL1        0.0830
     25 H           1.4075   -0.1420    2.7308 H       1  UNL1        0.0837
     26 H          -0.9541   -0.0150    2.6184 H       1  UNL1        0.0661
     27 H          -6.6525    0.3053    1.8060 H       1  UNL1        0.0671
     28 H          -7.6803    0.4246   -0.7665 H       1  UNL1        0.1031
     29 H          -0.5901    0.0726   -1.5891 H       1  UNL1        0.1674
     30 H           1.5923   -0.0428   -1.5642 H       1  UNL1        0.0632
     31 H           3.8407   -0.1347   -2.6026 H       1  UNL1        0.0625
@<TRIPOS>BOND
     1     1     2   ar
     2     2     3   ar
     3     3     4   ar
     4     4     5   ar
     5     5     6   ar
     6     6     7   ar
     7     7     8    1
     8     8     9   ar
     9     9    10   ar
    10    10    11   ar
    11    11    12   ar
    12    12    13   ar
    13    13    14   ar
    14    14    15   ar
    15    15    16   ar
    16    16    17   ar
    17    17    18   ar
    18    18    19   ar
    19     7    20   ar
    20    20    21   ar
    21    21    22   ar
    22    22     1   ar
    23    21     4   ar
    24    19     8   ar
    25    18    10   ar
    26    16    12   ar
    27     1    23    1
    28     2    24    1
    29     6    25    1
    30     9    26    1
    31    13    27    1
    32    14    28    1
    33    19    29    1
    34    20    30    1
    35    22    31    1
