@<TRIPOS>MOLECULE
*****
 28 31 0 0 0
SMALL
GASTEIGER

@<TRIPOS>ATOM
      1 C          -4.8059   -0.0360   -0.9290 C.ar    1  UNL1       -0.0429
      2 C          -5.1056    0.8526    0.0830 C.ar    1  UNL1        0.0300
      3 N          -4.1872    1.3771    0.9236 N.ar    1  UNL1       -0.2357
      4 C          -2.9069    1.0282    0.7820 C.ar    1  UNL1        0.1597
      5 N          -2.0121    1.5539    1.6182 N.ar    1  UNL1       -0.2351
      6 C          -0.7082    1.2080    1.4845 C.ar    1  UNL1        0.0377
      7 C          -0.2071    0.3264    0.5334 C.ar    1  UNL1        0.0010
      8 C           1.2219   -0.0110    0.4511 C.ar    1  UNL1       -0.0142
      9 C           1.9321   -0.4252    1.5970 C.ar    1  UNL1       -0.0519
     10 C           3.2950   -0.7578    1.5623 C.ar    1  UNL1       -0.0342
     11 C           3.9211   -0.6591    0.3223 C.ar    1  UNL1        0.0858
     12 N           5.1974   -0.8894   -0.1082 N.ar    1  UNL1       -0.2571
     13 N           5.3328   -0.6551   -1.4237 N.ar    1  UNL1       -0.0673
     14 N           4.1498   -0.2638   -1.8817 N.ar    1  UNL1       -0.1297
     15 C           3.2688   -0.2586   -0.8338 C.ar    1  UNL1        0.1130
     16 C           1.9069    0.0712   -0.7790 C.ar    1  UNL1       -0.0247
     17 C          -1.1512   -0.2180   -0.3384 C.ar    1  UNL1       -0.0419
     18 C          -2.5087    0.1266   -0.2238 C.ar    1  UNL1        0.0198
     19 C          -3.4795   -0.4065   -1.0845 C.ar    1  UNL1       -0.0496
     20 H          -5.5825   -0.4272   -1.5762 H       1  UNL1        0.0633
     21 H          -6.1264    1.1822    0.2564 H       1  UNL1        0.0830
     22 H          -0.0497    1.6970    2.1994 H       1  UNL1        0.0836
     23 H           1.4133   -0.5084    2.5529 H       1  UNL1        0.0624
     24 H           3.8212   -1.0768    2.4556 H       1  UNL1        0.0639
     25 H           6.0055   -1.1982    0.4177 H       1  UNL1        0.1907
     26 H           1.4079    0.3963   -1.6865 H       1  UNL1        0.0646
     27 H          -0.8372   -0.9238   -1.1047 H       1  UNL1        0.0631
     28 H          -3.2056   -1.1048   -1.8709 H       1  UNL1        0.0625
@<TRIPOS>BOND
     1     1     2   ar
     2     2     3   ar
     3     3     4   ar
     4     4     5   ar
     5     5     6   ar
     6     6     7   ar
     7     7     8    1
     8     8     9   ar
     9     9    10   ar
    10    10    11   ar
    11    11    12   ar
    12    12    13   ar
    13    13    14   ar
    14    14    15   ar
    15    15    16   ar
    16     7    17   ar
    17    17    18   ar
    18    18    19   ar
    19    19     1   ar
    20    18     4   ar
    21    16     8   ar
    22    15    11   ar
    23     1    20    1
    24     2    21    1
    25     6    22    1
    26     9    23    1
    27    10    24    1
    28    12    25    1
    29    16    26    1
    30    17    27    1
    31    19    28    1
