@<TRIPOS>MOLECULE
*****
 37 41 0 0 0
SMALL
GASTEIGER

@<TRIPOS>ATOM
      1 C          -6.5062    0.9473    0.7691 C.ar    1  UNL1       -0.0429
      2 C          -6.9590   -0.2502    0.2547 C.ar    1  UNL1        0.0300
      3 N          -6.1532   -1.2006   -0.2670 N.ar    1  UNL1       -0.2357
      4 C          -4.8359   -0.9880   -0.2945 C.ar    1  UNL1        0.1597
      5 N          -4.0532   -1.9346   -0.8118 N.ar    1  UNL1       -0.2351
      6 C          -2.7132   -1.7306   -0.8448 C.ar    1  UNL1        0.0377
      7 C          -2.0642   -0.5914   -0.3821 C.ar    1  UNL1        0.0010
      8 C          -0.6050   -0.4327   -0.4582 C.ar    1  UNL1       -0.0144
      9 C           0.0930   -0.6839   -1.6409 C.ar    1  UNL1       -0.0533
     10 C           1.4807   -0.5241   -1.6974 C.ar    1  UNL1       -0.0514
     11 C           2.2276   -0.1051   -0.5702 C.ar    1  UNL1        0.0081
     12 C           1.5204    0.1495    0.6259 C.ar    1  UNL1        0.0721
     13 C           0.1409   -0.0179    0.6568 C.ar    1  UNL1       -0.0280
     14 N           2.1151    0.5514    1.7555 N.ar    1  UNL1       -0.2543
     15 C           3.4545    0.7164    1.7412 C.ar    1  UNL1        0.0360
     16 C           4.2684    0.5013    0.6358 C.ar    1  UNL1        0.0008
     17 C           5.6603    0.6978    0.7061 C.ar    1  UNL1       -0.0526
     18 C           6.4652    0.4791   -0.4080 C.ar    1  UNL1       -0.0611
     19 C           5.8867    0.0630   -1.5989 C.ar    1  UNL1       -0.0611
     20 C           4.5038   -0.1338   -1.6740 C.ar    1  UNL1       -0.0534
     21 C           3.6517    0.0788   -0.5602 C.ar    1  UNL1       -0.0073
     22 C          -2.8925    0.3933    0.1585 C.ar    1  UNL1       -0.0419
     23 C          -4.2843    0.2059    0.2084 C.ar    1  UNL1        0.0198
     24 C          -5.1400    1.1794    0.7445 C.ar    1  UNL1       -0.0496
     25 H          -7.1968    1.6766    1.1764 H       1  UNL1        0.0633
     26 H          -8.0184   -0.4919    0.2450 H       1  UNL1        0.0830
     27 H          -2.1545   -2.5622   -1.2692 H       1  UNL1        0.0836
     28 H          -0.4340   -0.9940   -2.5419 H       1  UNL1        0.0624
     29 H           1.9689   -0.7311   -2.6456 H       1  UNL1        0.0624
     30 H          -0.3655    0.1746    1.6020 H       1  UNL1        0.0645
     31 H           3.8708    1.0422    2.6915 H       1  UNL1        0.0836
     32 H           6.1254    1.0235    1.6344 H       1  UNL1        0.0624
     33 H           7.5393    0.6327   -0.3456 H       1  UNL1        0.0618
     34 H           6.5074   -0.1108   -2.4745 H       1  UNL1        0.0618
     35 H           4.1013   -0.4603   -2.6290 H       1  UNL1        0.0624
     36 H          -2.4598    1.3187    0.5335 H       1  UNL1        0.0631
     37 H          -4.7462    2.1116    1.1407 H       1  UNL1        0.0625
@<TRIPOS>BOND
     1     1     2   ar
     2     2     3   ar
     3     3     4   ar
     4     4     5   ar
     5     5     6   ar
     6     6     7   ar
     7     7     8    1
     8     8     9   ar
     9     9    10   ar
    10    10    11   ar
    11    11    12   ar
    12    12    13   ar
    13    12    14   ar
    14    14    15   ar
    15    15    16   ar
    16    16    17   ar
    17    17    18   ar
    18    18    19   ar
    19    19    20   ar
    20    20    21   ar
    21     7    22   ar
    22    22    23   ar
    23    23    24   ar
    24    24     1   ar
    25    23     4   ar
    26    13     8   ar
    27    21    16   ar
    28    21    11   ar
    29     1    25    1
    30     2    26    1
    31     6    27    1
    32     9    28    1
    33    10    29    1
    34    13    30    1
    35    15    31    1
    36    17    32    1
    37    18    33    1
    38    19    34    1
    39    20    35    1
    40    22    36    1
    41    24    37    1
