@<TRIPOS>MOLECULE
*****
 35 39 0 0 0
SMALL
GASTEIGER

@<TRIPOS>ATOM
      1 C           4.7995    1.6490   -1.0711 C.ar    1  UNL1       -0.0429
      2 C           5.1564    1.5249    0.2560 C.ar    1  UNL1        0.0300
      3 N           4.4111    0.8821    1.1814 N.ar    1  UNL1       -0.2357
      4 C           3.2568    0.3252    0.8100 C.ar    1  UNL1        0.1597
      5 N           2.5319   -0.3044    1.7358 N.ar    1  UNL1       -0.2351
      6 C           1.3566   -0.8726    1.3730 C.ar    1  UNL1        0.0377
      7 C           0.8298   -0.8455    0.0892 C.ar    1  UNL1        0.0016
      8 C          -0.4469   -1.4704   -0.2331 C.ar    1  UNL1       -0.0067
      9 C          -0.4951   -2.7755   -0.7617 C.ar    1  UNL1       -0.0533
     10 C          -1.7071   -3.3840   -1.0736 C.ar    1  UNL1       -0.0592
     11 C          -2.9135   -2.7147   -0.8722 C.ar    1  UNL1       -0.0377
     12 C          -2.8615   -1.4169   -0.3496 C.ar    1  UNL1        0.0481
     13 N          -3.8906   -0.5521   -0.0615 N.ar    1  UNL1       -0.3529
     14 C          -3.4129    0.6339    0.4347 C.ar    1  UNL1        0.0658
     15 C          -4.0939    1.7725    0.8462 C.ar    1  UNL1        0.0514
     16 N          -3.3920    2.8310    1.3052 N.ar    1  UNL1       -0.2612
     17 C          -2.0456    2.7492    1.3529 C.ar    1  UNL1        0.0283
     18 C          -1.3058    1.6446    0.9566 C.ar    1  UNL1       -0.0338
     19 C          -2.0228    0.5356    0.4755 C.ar    1  UNL1        0.0109
     20 C          -1.6661   -0.7696   -0.0223 C.ar    1  UNL1        0.0152
     21 C           1.5910   -0.1910   -0.8770 C.ar    1  UNL1       -0.0419
     22 C           2.8128    0.4032   -0.5251 C.ar    1  UNL1        0.0198
     23 C           3.6021    1.0759   -1.4690 C.ar    1  UNL1       -0.0496
     24 H           5.4353    2.1766   -1.7729 H       1  UNL1        0.0633
     25 H           6.0827    1.9523    0.6302 H       1  UNL1        0.0830
     26 H           0.8266   -1.3656    2.1853 H       1  UNL1        0.0836
     27 H           0.4299   -3.3254   -0.9284 H       1  UNL1        0.0624
     28 H          -1.7139   -4.3939   -1.4779 H       1  UNL1        0.0618
     29 H          -3.8580   -3.1917   -1.1156 H       1  UNL1        0.0638
     30 H          -4.8682   -0.7637   -0.1997 H       1  UNL1        0.1659
     31 H          -5.1723    1.8700    0.8232 H       1  UNL1        0.0851
     32 H          -1.5465    3.6354    1.7366 H       1  UNL1        0.0830
     33 H          -0.2253    1.6584    1.0261 H       1  UNL1        0.0639
     34 H           1.2286   -0.1371   -1.9014 H       1  UNL1        0.0631
     35 H           3.2871    1.1541   -2.5062 H       1  UNL1        0.0625
@<TRIPOS>BOND
     1     1     2   ar
     2     2     3   ar
     3     3     4   ar
     4     4     5   ar
     5     5     6   ar
     6     6     7   ar
     7     7     8    1
     8     8     9   ar
     9     9    10   ar
    10    10    11   ar
    11    11    12   ar
    12    12    13   ar
    13    13    14   ar
    14    14    15   ar
    15    15    16   ar
    16    16    17   ar
    17    17    18   ar
    18    18    19   ar
    19    19    20   ar
    20     7    21   ar
    21    21    22   ar
    22    22    23   ar
    23    23     1   ar
    24    22     4   ar
    25    20     8   ar
    26    20    12   ar
    27    19    14   ar
    28     1    24    1
    29     2    25    1
    30     6    26    1
    31     9    27    1
    32    10    28    1
    33    11    29    1
    34    13    30    1
    35    15    31    1
    36    17    32    1
    37    18    33    1
    38    21    34    1
    39    23    35    1
