@<TRIPOS>MOLECULE
*****
 35 39 0 0 0
SMALL
GASTEIGER

@<TRIPOS>ATOM
      1 C          -4.8640    1.3529   -1.2503 C.ar    1  UNL1       -0.0429
      2 C          -5.1469    1.5232    0.0894 C.ar    1  UNL1        0.0300
      3 N          -4.3534    1.0837    1.0905 N.ar    1  UNL1       -0.2357
      4 C          -3.2233    0.4426    0.7867 C.ar    1  UNL1        0.1597
      5 N          -2.4503    0.0156    1.7861 N.ar    1  UNL1       -0.2351
      6 C          -1.2991   -0.6353    1.4924 C.ar    1  UNL1        0.0377
      7 C          -0.8438   -0.8942    0.2067 C.ar    1  UNL1        0.0016
      8 C           0.4107   -1.5928   -0.0414 C.ar    1  UNL1       -0.0051
      9 C           0.4309   -2.9651   -0.3705 C.ar    1  UNL1       -0.0532
     10 C           1.6288   -3.6417   -0.6072 C.ar    1  UNL1       -0.0577
     11 C           2.8534   -2.9776   -0.5277 C.ar    1  UNL1       -0.0187
     12 C           2.8131   -1.6222   -0.2061 C.ar    1  UNL1        0.1368
     13 O           3.9082   -0.8248   -0.0905 O.2     1  UNL1       -0.4548
     14 C           3.4644    0.4201    0.2257 C.ar    1  UNL1        0.1363
     15 C           4.2806    1.5313    0.4301 C.ar    1  UNL1       -0.0187
     16 C           3.6385    2.7315    0.7463 C.ar    1  UNL1       -0.0582
     17 C           2.2479    2.7977    0.8471 C.ar    1  UNL1       -0.0610
     18 C           1.4527    1.6617    0.6348 C.ar    1  UNL1       -0.0504
     19 C           2.0762    0.4374    0.3174 C.ar    1  UNL1        0.0285
     20 C           1.6459   -0.9021    0.0390 C.ar    1  UNL1        0.0356
     21 C          -1.6554   -0.4511   -0.8355 C.ar    1  UNL1       -0.0419
     22 C          -2.8538    0.2241   -0.5555 C.ar    1  UNL1        0.0198
     23 C          -3.6923    0.6896   -1.5786 C.ar    1  UNL1       -0.0496
     24 H          -5.5361    1.7263   -2.0144 H       1  UNL1        0.0633
     25 H          -6.0498    2.0350    0.4116 H       1  UNL1        0.0830
     26 H          -0.7282   -0.9502    2.3635 H       1  UNL1        0.0836
     27 H          -0.5063   -3.5169   -0.4375 H       1  UNL1        0.0624
     28 H           1.6094   -4.7010   -0.8551 H       1  UNL1        0.0619
     29 H           3.7945   -3.4840   -0.7070 H       1  UNL1        0.0654
     30 H           5.3583    1.4606    0.3469 H       1  UNL1        0.0654
     31 H           4.2327    3.6269    0.9166 H       1  UNL1        0.0619
     32 H           1.7705    3.7437    1.0956 H       1  UNL1        0.0618
     33 H           0.3728    1.7408    0.7189 H       1  UNL1        0.0625
     34 H          -1.3516   -0.6235   -1.8659 H       1  UNL1        0.0631
     35 H          -3.4354    0.5378   -2.6236 H       1  UNL1        0.0625
@<TRIPOS>BOND
     1     1     2   ar
     2     2     3   ar
     3     3     4   ar
     4     4     5   ar
     5     5     6   ar
     6     6     7   ar
     7     7     8    1
     8     8     9   ar
     9     9    10   ar
    10    10    11   ar
    11    11    12   ar
    12    12    13   ar
    13    13    14   ar
    14    14    15   ar
    15    15    16   ar
    16    16    17   ar
    17    17    18   ar
    18    18    19   ar
    19    19    20   ar
    20     7    21   ar
    21    21    22   ar
    22    22    23   ar
    23    23     1   ar
    24    22     4   ar
    25    20     8   ar
    26    20    12   ar
    27    19    14   ar
    28     1    24    1
    29     2    25    1
    30     6    26    1
    31     9    27    1
    32    10    28    1
    33    11    29    1
    34    15    30    1
    35    16    31    1
    36    17    32    1
    37    18    33    1
    38    21    34    1
    39    23    35    1
