@<TRIPOS>MOLECULE
*****
 34 38 0 0 0
SMALL
GASTEIGER

@<TRIPOS>ATOM
      1 C           4.9690   -0.6969   -0.9380 C.ar    1  UNL1       -0.0429
      2 C           5.0324   -1.4360    0.2254 C.ar    1  UNL1        0.0300
      3 N           4.0446   -1.4809    1.1460 N.ar    1  UNL1       -0.2357
      4 C           2.9333   -0.7727    0.9379 C.ar    1  UNL1        0.1597
      5 N           1.9676   -0.8271    1.8562 N.ar    1  UNL1       -0.2351
      6 C           0.8332   -0.1142    1.6581 C.ar    1  UNL1        0.0377
      7 C           0.5812    0.6767    0.5451 C.ar    1  UNL1        0.0016
      8 C          -0.6704    1.4053    0.3833 C.ar    1  UNL1       -0.0050
      9 C          -0.7481    2.7925    0.6303 C.ar    1  UNL1       -0.0532
     10 C          -1.9449    3.4951    0.4789 C.ar    1  UNL1       -0.0577
     11 C          -3.1106    2.8445    0.0731 C.ar    1  UNL1       -0.0186
     12 C          -3.0136    1.4758   -0.1712 C.ar    1  UNL1        0.1388
     13 O          -4.0460    0.6918   -0.5755 O.2     1  UNL1       -0.4368
     14 C          -3.5644   -0.5718   -0.7127 C.ar    1  UNL1        0.2284
     15 N          -4.3353   -1.6026   -1.1059 N.ar    1  UNL1       -0.2205
     16 C          -3.6641   -2.7710   -1.1802 C.ar    1  UNL1        0.0314
     17 C          -2.3174   -2.9498   -0.8964 C.ar    1  UNL1       -0.0428
     18 C          -1.5570   -1.8511   -0.4945 C.ar    1  UNL1       -0.0474
     19 C          -2.2065   -0.6070   -0.3943 C.ar    1  UNL1        0.0482
     20 C          -1.8449    0.7307   -0.0347 C.ar    1  UNL1        0.0373
     21 C           1.5935    0.7356   -0.4106 C.ar    1  UNL1       -0.0419
     22 C           2.7806    0.0097   -0.2239 C.ar    1  UNL1        0.0198
     23 C           3.8181    0.0407   -1.1669 C.ar    1  UNL1       -0.0496
     24 H           5.7914   -0.6964   -1.6441 H       1  UNL1        0.0633
     25 H           5.9074   -2.0352    0.4626 H       1  UNL1        0.0830
     26 H           0.0997   -0.2103    2.4562 H       1  UNL1        0.0836
     27 H           0.1410    3.3335    0.9532 H       1  UNL1        0.0624
     28 H          -1.9717    4.5640    0.6816 H       1  UNL1        0.0619
     29 H          -4.0500    3.3713   -0.0498 H       1  UNL1        0.0654
     30 H          -4.2710   -3.6180   -1.4939 H       1  UNL1        0.0831
     31 H          -1.8636   -3.9319   -0.9851 H       1  UNL1        0.0633
     32 H          -0.5019   -1.9686   -0.2691 H       1  UNL1        0.0626
     33 H           1.4565    1.3397   -1.3051 H       1  UNL1        0.0631
     34 H           3.7320    0.6342   -2.0733 H       1  UNL1        0.0625
@<TRIPOS>BOND
     1     1     2   ar
     2     2     3   ar
     3     3     4   ar
     4     4     5   ar
     5     5     6   ar
     6     6     7   ar
     7     7     8    1
     8     8     9   ar
     9     9    10   ar
    10    10    11   ar
    11    11    12   ar
    12    12    13   ar
    13    13    14   ar
    14    14    15   ar
    15    15    16   ar
    16    16    17   ar
    17    17    18   ar
    18    18    19   ar
    19    19    20   ar
    20     7    21   ar
    21    21    22   ar
    22    22    23   ar
    23    23     1   ar
    24    22     4   ar
    25    20     8   ar
    26    20    12   ar
    27    19    14   ar
    28     1    24    1
    29     2    25    1
    30     6    26    1
    31     9    27    1
    32    10    28    1
    33    11    29    1
    34    16    30    1
    35    17    31    1
    36    18    32    1
    37    21    33    1
    38    23    34    1
