@<TRIPOS>MOLECULE
*****
 34 38 0 0 0
SMALL
GASTEIGER

@<TRIPOS>ATOM
      1 C           4.7716   -0.1654    1.4810 C.ar    1  UNL1       -0.0429
      2 C           5.0277   -1.0372    0.4427 C.ar    1  UNL1        0.0300
      3 N           4.1590   -1.2932   -0.5599 N.ar    1  UNL1       -0.2357
      4 C           2.9775   -0.6738   -0.5666 C.ar    1  UNL1        0.1597
      5 N           2.1313   -0.9365   -1.5638 N.ar    1  UNL1       -0.2351
      6 C           0.9272   -0.3167   -1.5836 C.ar    1  UNL1        0.0377
      7 C           0.4863    0.5800   -0.6197 C.ar    1  UNL1        0.0015
      8 C          -0.8261    1.2135   -0.6973 C.ar    1  UNL1       -0.0076
      9 C          -0.9492    2.4610   -1.3423 C.ar    1  UNL1       -0.0533
     10 C          -2.1729    3.1021   -1.4350 C.ar    1  UNL1       -0.0601
     11 C          -3.3080    2.5175   -0.8845 C.ar    1  UNL1       -0.0473
     12 C          -3.1985    1.2701   -0.2356 C.ar    1  UNL1        0.0225
     13 S          -4.4953    0.4148    0.4979 S.2     1  UNL1       -0.0687
     14 C          -3.4887   -0.8600    0.9706 C.ar    1  UNL1        0.1093
     15 N          -4.0078   -1.9095    1.6435 N.ar    1  UNL1       -0.2478
     16 C          -3.1147   -2.8633    1.9609 C.ar    1  UNL1        0.0289
     17 C          -1.7697   -2.8248    1.6545 C.ar    1  UNL1       -0.0429
     18 C          -1.2766   -1.7206    0.9622 C.ar    1  UNL1       -0.0500
     19 C          -2.1624   -0.6777    0.5927 C.ar    1  UNL1        0.0160
     20 C          -1.9793    0.5856   -0.1223 C.ar    1  UNL1        0.0062
     21 C           1.3745    0.8588    0.4177 C.ar    1  UNL1       -0.0419
     22 C           2.6297    0.2319    0.4554 C.ar    1  UNL1        0.0198
     23 C           3.5461    0.4819    1.4869 C.ar    1  UNL1       -0.0496
     24 H           5.5049    0.0038    2.2612 H       1  UNL1        0.0633
     25 H           5.9699   -1.5753    0.3812 H       1  UNL1        0.0830
     26 H           0.2998   -0.5825   -2.4318 H       1  UNL1        0.0836
     27 H          -0.0708    2.9351   -1.7790 H       1  UNL1        0.0624
     28 H          -2.2489    4.0634   -1.9377 H       1  UNL1        0.0618
     29 H          -4.2701    3.0193   -0.9551 H       1  UNL1        0.0629
     30 H          -3.5303   -3.7118    2.4995 H       1  UNL1        0.0830
     31 H          -1.1119   -3.6374    1.9440 H       1  UNL1        0.0633
     32 H          -0.2206   -1.6879    0.7170 H       1  UNL1        0.0625
     33 H           1.0876    1.5594    1.1992 H       1  UNL1        0.0631
     34 H           3.3086    1.1752    2.2895 H       1  UNL1        0.0625
@<TRIPOS>BOND
     1     1     2   ar
     2     2     3   ar
     3     3     4   ar
     4     4     5   ar
     5     5     6   ar
     6     6     7   ar
     7     7     8    1
     8     8     9   ar
     9     9    10   ar
    10    10    11   ar
    11    11    12   ar
    12    12    13   ar
    13    13    14   ar
    14    14    15   ar
    15    15    16   ar
    16    16    17   ar
    17    17    18   ar
    18    18    19   ar
    19    19    20   ar
    20     7    21   ar
    21    21    22   ar
    22    22    23   ar
    23    23     1   ar
    24    22     4   ar
    25    20     8   ar
    26    20    12   ar
    27    19    14   ar
    28     1    24    1
    29     2    25    1
    30     6    26    1
    31     9    27    1
    32    10    28    1
    33    11    29    1
    34    16    30    1
    35    17    31    1
    36    18    32    1
    37    21    33    1
    38    23    34    1
