@<TRIPOS>MOLECULE
*****
 23 25 0 0 0
SMALL
GASTEIGER

@<TRIPOS>ATOM
      1 C           3.8407    0.7463   -0.6722 C.ar    1  UNL1       -0.0429
      2 C           4.1271    0.0241    0.4679 C.ar    1  UNL1        0.0300
      3 N           3.1899   -0.5530    1.2511 N.ar    1  UNL1       -0.2357
      4 C           1.9036   -0.4284    0.9193 C.ar    1  UNL1        0.1597
      5 N           0.9905   -1.0037    1.7018 N.ar    1  UNL1       -0.2351
      6 C          -0.3210   -0.8856    1.3758 C.ar    1  UNL1        0.0378
      7 C          -0.8037   -0.2026    0.2687 C.ar    1  UNL1        0.0039
      8 C          -2.2195   -0.1066   -0.0320 C.ar    1  UNL1        0.0208
      9 C          -2.9411    0.8411   -0.7966 C.ar    1  UNL1        0.0569
     10 N          -4.2484    0.5756   -0.8525 N.ar    1  UNL1       -0.1817
     11 N          -4.3738   -0.5441   -0.1243 N.ar    1  UNL1       -0.2841
     12 C          -3.1895   -0.9938    0.3871 C.ar    1  UNL1        0.0301
     13 C           0.1519    0.4002   -0.5454 C.ar    1  UNL1       -0.0418
     14 C           1.5171    0.2920   -0.2282 C.ar    1  UNL1        0.0198
     15 C           2.5077    0.8822   -1.0268 C.ar    1  UNL1       -0.0496
     16 H           4.6323    1.1891   -1.2657 H       1  UNL1        0.0633
     17 H           5.1522   -0.1185    0.7992 H       1  UNL1        0.0830
     18 H          -0.9886   -1.3761    2.0792 H       1  UNL1        0.0836
     19 H          -2.5703    1.7175   -1.3125 H       1  UNL1        0.0854
     20 H          -5.2982   -0.9504   -0.0205 H       1  UNL1        0.1882
     21 H          -3.1553   -1.8958    0.9817 H       1  UNL1        0.0830
     22 H          -0.1485    0.9466   -1.4358 H       1  UNL1        0.0631
     23 H           2.2448    1.4441   -1.9192 H       1  UNL1        0.0625
@<TRIPOS>BOND
     1     1     2   ar
     2     2     3   ar
     3     3     4   ar
     4     4     5   ar
     5     5     6   ar
     6     6     7   ar
     7     7     8    1
     8     8     9   ar
     9     9    10   ar
    10    10    11   ar
    11    11    12   ar
    12     7    13   ar
    13    13    14   ar
    14    14    15   ar
    15    15     1   ar
    16    14     4   ar
    17    12     8   ar
    18     1    16    1
    19     2    17    1
    20     6    18    1
    21     9    19    1
    22    11    20    1
    23    12    21    1
    24    13    22    1
    25    15    23    1
