@<TRIPOS>MOLECULE
*****
 33 37 0 0 0
SMALL
GASTEIGER

@<TRIPOS>ATOM
      1 C           6.0302    0.5168   -0.5182 C.ar    1  UNL1       -0.0429
      2 C           6.0945    0.8706    0.8138 C.ar    1  UNL1        0.0300
      3 N           5.0386    0.8352    1.6556 N.ar    1  UNL1       -0.2357
      4 C           3.8537    0.4358    1.1905 C.ar    1  UNL1        0.1597
      5 N           2.8206    0.4063    2.0322 N.ar    1  UNL1       -0.2351
      6 C           1.6111    0.0027    1.5740 C.ar    1  UNL1        0.0377
      7 C           1.3414   -0.3899    0.2679 C.ar    1  UNL1        0.0024
      8 C           0.0023   -0.8071   -0.1617 C.ar    1  UNL1        0.0023
      9 C          -0.2100   -1.9952   -0.8596 C.ar    1  UNL1        0.0366
     10 N          -1.3956   -2.4657   -1.3063 N.ar    1  UNL1       -0.2472
     11 C          -2.4474   -1.6722   -1.0177 C.ar    1  UNL1        0.1107
     12 S          -4.0174   -2.1080   -1.5024 S.2     1  UNL1       -0.0490
     13 C          -4.6802   -0.7025   -0.8115 C.ar    1  UNL1        0.1107
     14 N          -6.0074   -0.4649   -0.8805 N.ar    1  UNL1       -0.2478
     15 C          -6.3944    0.6837   -0.2922 C.ar    1  UNL1        0.0289
     16 C          -5.5544    1.5818    0.3418 C.ar    1  UNL1       -0.0429
     17 C          -4.1912    1.3001    0.3909 C.ar    1  UNL1       -0.0500
     18 C          -3.7232    0.1090   -0.2083 C.ar    1  UNL1        0.0169
     19 C          -2.4061   -0.4647   -0.3300 C.ar    1  UNL1        0.0175
     20 C          -1.1326   -0.0284    0.1073 C.ar    1  UNL1       -0.0422
     21 C           2.4284   -0.3571   -0.6072 C.ar    1  UNL1       -0.0418
     22 C           3.6941    0.0553   -0.1558 C.ar    1  UNL1        0.0198
     23 C           4.8038    0.1011   -1.0125 C.ar    1  UNL1       -0.0496
     24 H           6.9092    0.5639   -1.1509 H       1  UNL1        0.0633
     25 H           7.0267    1.2047    1.2615 H       1  UNL1        0.0830
     26 H           0.8343   -0.0013    2.3360 H       1  UNL1        0.0836
     27 H           0.6260   -2.6554   -1.0884 H       1  UNL1        0.0836
     28 H          -7.4634    0.8788   -0.3451 H       1  UNL1        0.0830
     29 H          -5.9523    2.4858    0.7907 H       1  UNL1        0.0633
     30 H          -3.5070    1.9859    0.8816 H       1  UNL1        0.0625
     31 H          -1.0449    0.9172    0.6367 H       1  UNL1        0.0631
     32 H           2.2966   -0.6375   -1.6506 H       1  UNL1        0.0631
     33 H           4.7159   -0.1847   -2.0574 H       1  UNL1        0.0625
@<TRIPOS>BOND
     1     1     2   ar
     2     2     3   ar
     3     3     4   ar
     4     4     5   ar
     5     5     6   ar
     6     6     7   ar
     7     7     8    1
     8     8     9   ar
     9     9    10   ar
    10    10    11   ar
    11    11    12   ar
    12    12    13   ar
    13    13    14   ar
    14    14    15   ar
    15    15    16   ar
    16    16    17   ar
    17    17    18   ar
    18    18    19   ar
    19    19    20   ar
    20     7    21   ar
    21    21    22   ar
    22    22    23   ar
    23    23     1   ar
    24    22     4   ar
    25    20     8   ar
    26    19    11   ar
    27    18    13   ar
    28     1    24    1
    29     2    25    1
    30     6    26    1
    31     9    27    1
    32    15    28    1
    33    16    29    1
    34    17    30    1
    35    20    31    1
    36    21    32    1
    37    23    33    1
