@<TRIPOS>MOLECULE
*****
 34 38 0 0 0
SMALL
GASTEIGER

@<TRIPOS>ATOM
      1 C           5.5011   -0.8096   -1.4500 C.ar    1  UNL1       -0.0429
      2 C           5.5599   -1.7216   -0.4163 C.ar    1  UNL1        0.0300
      3 N           4.5851   -1.8814    0.5054 N.ar    1  UNL1       -0.2357
      4 C           3.4936   -1.1185    0.4311 C.ar    1  UNL1        0.1597
      5 N           2.5411   -1.2861    1.3494 N.ar    1  UNL1       -0.2351
      6 C           1.4283   -0.5174    1.2887 C.ar    1  UNL1        0.0378
      7 C           1.1765    0.4391    0.3137 C.ar    1  UNL1        0.0044
      8 C          -0.0598    1.2086    0.2875 C.ar    1  UNL1        0.0256
      9 C          -0.1045    2.5973    0.4184 C.ar    1  UNL1        0.0373
     10 N          -1.2247    3.3559    0.3991 N.ar    1  UNL1       -0.2619
     11 C          -2.4232    2.7453    0.2427 C.ar    1  UNL1        0.0374
     12 C          -2.5023    1.3548    0.0949 C.ar    1  UNL1        0.0275
     13 C          -1.3192    0.6119    0.1181 C.ar    1  UNL1        0.0583
     14 N          -1.6743   -0.7078   -0.0675 N.ar    1  UNL1       -0.3535
     15 C          -3.0364   -0.8397   -0.1868 C.ar    1  UNL1        0.0504
     16 C          -3.8231   -1.9740   -0.3747 C.ar    1  UNL1       -0.0196
     17 C          -5.1861   -1.7335   -0.4570 C.ar    1  UNL1        0.0295
     18 N          -5.7639   -0.5154   -0.3704 N.ar    1  UNL1       -0.2625
     19 C          -4.9760    0.5730   -0.1879 C.ar    1  UNL1        0.0373
     20 C          -3.5849    0.4379   -0.0901 C.ar    1  UNL1        0.0269
     21 C           2.1765    0.6148   -0.6417 C.ar    1  UNL1       -0.0418
     22 C           3.3459   -0.1622   -0.5925 C.ar    1  UNL1        0.0198
     23 C           4.3694   -0.0143   -1.5398 C.ar    1  UNL1       -0.0496
     24 H           6.3125   -0.7220   -2.1635 H       1  UNL1        0.0633
     25 H           6.4201   -2.3739   -0.2917 H       1  UNL1        0.0830
     26 H           0.7159   -0.7056    2.0898 H       1  UNL1        0.0836
     27 H           0.8118    3.1682    0.5583 H       1  UNL1        0.0836
     28 H          -3.2937    3.3920    0.2362 H       1  UNL1        0.0836
     29 H          -1.0200   -1.4771   -0.1139 H       1  UNL1        0.1659
     30 H          -3.4115   -2.9719   -0.4515 H       1  UNL1        0.0653
     31 H          -5.8816   -2.5566   -0.6025 H       1  UNL1        0.0830
     32 H          -5.4856    1.5277   -0.1247 H       1  UNL1        0.0836
     33 H           2.0451    1.3475   -1.4358 H       1  UNL1        0.0631
     34 H           4.2880    0.7144   -2.3421 H       1  UNL1        0.0625
@<TRIPOS>BOND
     1     1     2   ar
     2     2     3   ar
     3     3     4   ar
     4     4     5   ar
     5     5     6   ar
     6     6     7   ar
     7     7     8    1
     8     8     9   ar
     9     9    10   ar
    10    10    11   ar
    11    11    12   ar
    12    12    13   ar
    13    13    14   ar
    14    14    15   ar
    15    15    16   ar
    16    16    17   ar
    17    17    18   ar
    18    18    19   ar
    19    19    20   ar
    20     7    21   ar
    21    21    22   ar
    22    22    23   ar
    23    23     1   ar
    24    22     4   ar
    25    13     8   ar
    26    20    15   ar
    27    20    12   ar
    28     1    24    1
    29     2    25    1
    30     6    26    1
    31     9    27    1
    32    11    28    1
    33    14    29    1
    34    16    30    1
    35    17    31    1
    36    19    32    1
    37    21    33    1
    38    23    34    1
