@<TRIPOS>MOLECULE
*****
 39 45 0 0 0
SMALL
GASTEIGER

@<TRIPOS>ATOM
      1 SI         -6.9464   -0.5518    0.7900 Si      1  UNL1        0.0000
      2 C          -6.4474   -0.0380   -0.9450 C.2     1  UNL1        0.0000
      3 C          -5.1076    0.0586   -1.0469 C.ar    1  UNL1        0.0000
      4 C          -4.3910    0.4393   -2.2696 C.ar    1  UNL1        0.0000
      5 C          -3.0410    0.5135   -2.2900 C.ar    1  UNL1        0.0000
      6 C          -2.3667    0.2060   -1.0760 C.ar    1  UNL1        0.0000
      7 N          -0.9976    0.2412   -0.9538 N.ar    1  UNL1        0.0000
      8 C          -0.7785   -0.1090    0.3303 C.ar    1  UNL1        0.0000
      9 C           0.3807   -0.2390    1.0021 C.ar    1  UNL1        0.0000
     10 O           1.6028   -0.0350    0.4985 O.2     1  UNL1        0.0000
     11 C           2.4342   -0.2980    1.5842 C.ar    1  UNL1        0.0000
     12 C           1.6891   -0.6548    2.7171 C.ar    1  UNL1        0.0000
     13 C           0.3443   -0.6058    2.2989 C.ar    1  UNL1        0.0000
     14 S          -1.3423   -0.7860    2.6338 S.2     1  UNL1        0.0000
     15 C          -1.9103   -0.3697    1.0518 C.ar    1  UNL1        0.0000
     16 C          -2.9590   -0.1650    0.1352 C.ar    1  UNL1        0.0000
     17 C          -4.3711   -0.2589    0.2137 C.ar    1  UNL1        0.0000
     18 C          -5.1399   -0.5937    1.2645 C.2     1  UNL1        0.0000
     19 C           3.8691   -0.1899    1.4611 C.ar    1  UNL1        0.0000
     20 S           4.9455   -0.5047    2.7842 S.2     1  UNL1        0.0000
     21 C           6.3599   -0.1715    1.8531 C.ar    1  UNL1        0.0000
     22 C           6.0223    0.1692    0.5725 C.ar    1  UNL1        0.0000
     23 C           6.8454    0.5233   -0.5428 C.2     1  UNL1        0.0000
     24 C           6.1704    0.8060   -1.6782 C.2     1  UNL1        0.0000
     25 SI          4.2778    0.6370   -1.4222 Si      1  UNL1        0.0000
     26 C           4.6155    0.1537    0.3691 C.ar    1  UNL1        0.0000
     27 H          -7.6971    0.5156    1.4943 H       1  UNL1        0.0000
     28 H          -7.5748   -1.8947    0.8158 H       1  UNL1        0.0000
     29 H          -7.1815    0.1411   -1.7137 H       1  UNL1        0.0000
     30 H          -4.9705    0.6604   -3.1595 H       1  UNL1        0.0000
     31 H          -2.5014    0.7936   -3.1875 H       1  UNL1        0.0000
     32 H          -0.2868    0.4700   -1.6378 H       1  UNL1        0.0000
     33 H           2.0692   -0.9105    3.6950 H       1  UNL1        0.0000
     34 H          -4.8127   -0.8566    2.2573 H       1  UNL1        0.0000
     35 H           7.3398   -0.2470    2.3031 H       1  UNL1        0.0000
     36 H           7.9264    0.5589   -0.4713 H       1  UNL1        0.0000
     37 H           6.5754    1.0942   -2.6347 H       1  UNL1        0.0000
     38 H           3.7399   -0.4568   -2.2700 H       1  UNL1        0.0000
     39 H           3.6158    1.9547   -1.5959 H       1  UNL1        0.0000
@<TRIPOS>BOND
     1     1     2    1
     2     2     3    2
     3     3     4   ar
     4     4     5   ar
     5     5     6   ar
     6     6     7   ar
     7     7     8   ar
     8     8     9   ar
     9     9    10   ar
    10    10    11   ar
    11    11    12   ar
    12    12    13   ar
    13    13    14   ar
    14    14    15   ar
    15    15    16   ar
    16    16    17   ar
    17    17    18    2
    18    11    19    1
    19    19    20   ar
    20    20    21   ar
    21    21    22   ar
    22    22    23    1
    23    23    24    2
    24    24    25    1
    25    25    26    1
    26    18     1    1
    27    26    19   ar
    28    17     3   ar
    29    26    22   ar
    30    16     6   ar
    31    15     8   ar
    32    13     9   ar
    33     1    27    1
    34     1    28    1
    35     2    29    1
    36     4    30    1
    37     5    31    1
    38     7    32    1
    39    12    33    1
    40    18    34    1
    41    21    35    1
    42    23    36    1
    43    24    37    1
    44    25    38    1
    45    25    39    1
