@<TRIPOS>MOLECULE
*****
 30 34 0 0 0
SMALL
GASTEIGER

@<TRIPOS>ATOM
      1 C          -5.5922   -1.0938   -0.5413 C.ar    1  UNL1       -0.0429
      2 C          -6.0320    0.1989   -0.3436 C.ar    1  UNL1        0.0300
      3 N          -5.2130    1.2464   -0.1050 N.ar    1  UNL1       -0.2357
      4 C          -3.8961    1.0396   -0.0535 C.ar    1  UNL1        0.1597
      5 N          -3.0993    2.0826    0.1827 N.ar    1  UNL1       -0.2349
      6 C          -1.7575    1.8862    0.2377 C.ar    1  UNL1        0.0422
      7 C          -1.1308    0.6621    0.0645 C.ar    1  UNL1        0.0557
      8 C           0.3171    0.5593    0.1430 C.ar    1  UNL1        0.2299
      9 N           1.2055    1.5116    0.3695 N.ar    1  UNL1       -0.2088
     10 C           2.4083    0.8561    0.3345 C.ar    1  UNL1        0.1135
     11 C           3.7191    1.3096    0.5016 C.ar    1  UNL1        0.0120
     12 C           4.7374    0.3710    0.4046 C.ar    1  UNL1        0.1573
     13 O           6.0807    0.5689    0.5289 O.2     1  UNL1       -0.4424
     14 C           6.6043   -0.6776    0.3449 C.ar    1  UNL1        0.1831
     15 N           5.7298   -1.6353    0.1183 N.ar    1  UNL1       -0.2160
     16 C           4.5271   -0.9792    0.1534 C.ar    1  UNL1        0.1129
     17 C           3.2158   -1.4317   -0.0135 C.ar    1  UNL1        0.0120
     18 C           2.1982   -0.4926    0.0836 C.ar    1  UNL1        0.1580
     19 O           0.8560   -0.6915   -0.0408 O.2     1  UNL1       -0.4352
     20 C          -1.9638   -0.4271   -0.1823 C.ar    1  UNL1       -0.0373
     21 C          -3.3566   -0.2484   -0.2438 C.ar    1  UNL1        0.0199
     22 C          -4.2258   -1.3211   -0.4901 C.ar    1  UNL1       -0.0496
     23 H          -6.2934   -1.8988   -0.7294 H       1  UNL1        0.0633
     24 H          -7.0907    0.4422   -0.3714 H       1  UNL1        0.0830
     25 H          -1.1826    2.7896    0.4347 H       1  UNL1        0.0838
     26 H           3.9308    2.3538    0.6991 H       1  UNL1        0.0677
     27 H           7.6810   -0.7594    0.4023 H       1  UNL1        0.1255
     28 H           3.0057   -2.4761   -0.2109 H       1  UNL1        0.0677
     29 H          -1.5393   -1.4179   -0.3280 H       1  UNL1        0.0633
     30 H          -3.8436   -2.3273   -0.6413 H       1  UNL1        0.0625
@<TRIPOS>BOND
     1     1     2   ar
     2     2     3   ar
     3     3     4   ar
     4     4     5   ar
     5     5     6   ar
     6     6     7   ar
     7     7     8    1
     8     8     9   ar
     9     9    10   ar
    10    10    11   ar
    11    11    12   ar
    12    12    13   ar
    13    13    14   ar
    14    14    15   ar
    15    15    16   ar
    16    16    17   ar
    17    17    18   ar
    18    18    19   ar
    19     7    20   ar
    20    20    21   ar
    21    21    22   ar
    22    22     1   ar
    23    21     4   ar
    24    19     8   ar
    25    18    10   ar
    26    16    12   ar
    27     1    23    1
    28     2    24    1
    29     6    25    1
    30    11    26    1
    31    14    27    1
    32    17    28    1
    33    20    29    1
    34    22    30    1
