@<TRIPOS>MOLECULE
*****
 30 34 0 0 0
SMALL
GASTEIGER

@<TRIPOS>ATOM
      1 C          -5.5641    1.2608   -1.1651 C.ar    1  UNL1       -0.0429
      2 C          -6.1131    0.7457   -0.0088 C.ar    1  UNL1        0.0300
      3 N          -5.3935    0.1548    0.9702 N.ar    1  UNL1       -0.2357
      4 C          -4.0708    0.0538    0.8286 C.ar    1  UNL1        0.1597
      5 N          -3.3712   -0.5312    1.8011 N.ar    1  UNL1       -0.2350
      6 C          -2.0233   -0.6418    1.6721 C.ar    1  UNL1        0.0397
      7 C          -1.2876   -0.1870    0.5867 C.ar    1  UNL1        0.0259
      8 C           0.1731   -0.3114    0.4559 C.ar    1  UNL1        0.1109
      9 N           0.8490    0.1302   -0.5881 N.ar    1  UNL1       -0.2389
     10 C           2.2007   -0.1214   -0.4404 C.ar    1  UNL1        0.0801
     11 C           3.2090    0.2106   -1.3540 C.ar    1  UNL1       -0.0194
     12 C           4.5399   -0.1029   -1.0788 C.ar    1  UNL1        0.0410
     13 S           5.9557    0.1871   -2.0145 S.2     1  UNL1       -0.0753
     14 C           6.9002   -0.5555   -0.7946 C.ar    1  UNL1        0.0659
     15 N           6.2507   -1.0037    0.2555 N.ar    1  UNL1       -0.2474
     16 C           4.8983   -0.7502    0.1042 C.ar    1  UNL1        0.0793
     17 C           3.8881   -1.0812    1.0164 C.ar    1  UNL1       -0.0194
     18 C           2.5579   -0.7670    0.7396 C.ar    1  UNL1        0.0416
     19 S           1.1444   -1.0542    1.6693 S.2     1  UNL1       -0.0671
     20 C          -2.0292    0.4244   -0.4269 C.ar    1  UNL1       -0.0399
     21 C          -3.4244    0.5513   -0.3180 C.ar    1  UNL1        0.0198
     22 C          -4.1907    1.1610   -1.3220 C.ar    1  UNL1       -0.0496
     23 H          -6.1877    1.7256   -1.9202 H       1  UNL1        0.0633
     24 H          -7.1833    0.7928    0.1737 H       1  UNL1        0.0830
     25 H          -1.5590   -1.1341    2.5225 H       1  UNL1        0.0837
     26 H           2.9394    0.7147   -2.2778 H       1  UNL1        0.0651
     27 H           7.9745   -0.6474   -0.8900 H       1  UNL1        0.0907
     28 H           4.1582   -1.5854    1.9402 H       1  UNL1        0.0651
     29 H          -1.5193    0.8062   -1.3104 H       1  UNL1        0.0632
     30 H          -3.7218    1.5555   -2.2198 H       1  UNL1        0.0625
@<TRIPOS>BOND
     1     1     2   ar
     2     2     3   ar
     3     3     4   ar
     4     4     5   ar
     5     5     6   ar
     6     6     7   ar
     7     7     8    1
     8     8     9   ar
     9     9    10   ar
    10    10    11   ar
    11    11    12   ar
    12    12    13   ar
    13    13    14   ar
    14    14    15   ar
    15    15    16   ar
    16    16    17   ar
    17    17    18   ar
    18    18    19   ar
    19     7    20   ar
    20    20    21   ar
    21    21    22   ar
    22    22     1   ar
    23    21     4   ar
    24    19     8   ar
    25    18    10   ar
    26    16    12   ar
    27     1    23    1
    28     2    24    1
    29     6    25    1
    30    11    26    1
    31    14    27    1
    32    17    28    1
    33    20    29    1
    34    22    30    1
