@<TRIPOS>MOLECULE
*****
 28 31 0 0 0
SMALL
GASTEIGER

@<TRIPOS>ATOM
      1 C          -5.1862    1.4034   -0.7603 C.ar    1  UNL1       -0.0429
      2 C          -5.6003    0.5571    0.2473 C.ar    1  UNL1        0.0300
      3 N          -4.7643   -0.2162    0.9734 N.ar    1  UNL1       -0.2357
      4 C          -3.4557   -0.1736    0.7163 C.ar    1  UNL1        0.1597
      5 N          -2.6425   -0.9412    1.4397 N.ar    1  UNL1       -0.2350
      6 C          -1.3083   -0.9063    1.1871 C.ar    1  UNL1        0.0397
      7 C          -0.6966   -0.1219    0.2167 C.ar    1  UNL1        0.0259
      8 C           0.7641   -0.1821    0.0496 C.ar    1  UNL1        0.1109
      9 N           1.5469   -0.9515    0.7798 N.ar    1  UNL1       -0.2390
     10 C           2.8708   -0.8038    0.4034 C.ar    1  UNL1        0.0789
     11 C           3.9725   -1.4739    0.9722 C.ar    1  UNL1       -0.0352
     12 C           5.2618   -1.2259    0.4897 C.ar    1  UNL1       -0.0597
     13 C           5.4634   -0.3216   -0.5482 C.ar    1  UNL1       -0.0606
     14 C           4.3862    0.3555   -1.1287 C.ar    1  UNL1       -0.0459
     15 C           3.0963    0.0978   -0.6354 C.ar    1  UNL1        0.0395
     16 S           1.5906    0.7608   -1.1315 S.2     1  UNL1       -0.0671
     17 C          -1.5551    0.6793   -0.5368 C.ar    1  UNL1       -0.0399
     18 C          -2.9415    0.6612   -0.2945 C.ar    1  UNL1        0.0198
     19 C          -3.8287    1.4557   -1.0360 C.ar    1  UNL1       -0.0496
     20 H          -5.8999    2.0034   -1.3132 H       1  UNL1        0.0633
     21 H          -6.6507    0.4705    0.5120 H       1  UNL1        0.0830
     22 H          -0.7224   -1.5654    1.8263 H       1  UNL1        0.0837
     23 H           3.8106   -2.1787    1.7819 H       1  UNL1        0.0639
     24 H           6.1095   -1.7449    0.9311 H       1  UNL1        0.0618
     25 H           6.4717   -0.1379   -0.9142 H       1  UNL1        0.0618
     26 H           4.5454    1.0608   -1.9386 H       1  UNL1        0.0629
     27 H          -1.1704    1.3275   -1.3194 H       1  UNL1        0.0632
     28 H          -3.4673    2.1117   -1.8235 H       1  UNL1        0.0625
@<TRIPOS>BOND
     1     1     2   ar
     2     2     3   ar
     3     3     4   ar
     4     4     5   ar
     5     5     6   ar
     6     6     7   ar
     7     7     8    1
     8     8     9   ar
     9     9    10   ar
    10    10    11   ar
    11    11    12   ar
    12    12    13   ar
    13    13    14   ar
    14    14    15   ar
    15    15    16   ar
    16     7    17   ar
    17    17    18   ar
    18    18    19   ar
    19    19     1   ar
    20    18     4   ar
    21    16     8   ar
    22    15    10   ar
    23     1    20    1
    24     2    21    1
    25     6    22    1
    26    11    23    1
    27    12    24    1
    28    13    25    1
    29    14    26    1
    30    17    27    1
    31    19    28    1
