@<TRIPOS>MOLECULE
*****
 30 34 0 0 0
SMALL
GASTEIGER

@<TRIPOS>ATOM
      1 C           5.6601    0.8015   -0.5740 C.ar    1  UNL1       -0.0429
      2 C           6.0559   -0.2971    0.1602 C.ar    1  UNL1        0.0300
      3 N           5.1986   -1.1483    0.7633 N.ar    1  UNL1       -0.2357
      4 C           3.8864   -0.9325    0.6554 C.ar    1  UNL1        0.1597
      5 N           3.0533   -1.7804    1.2555 N.ar    1  UNL1       -0.2350
      6 C           1.7157   -1.5726    1.1538 C.ar    1  UNL1        0.0406
      7 C           1.1252   -0.5245    0.4596 C.ar    1  UNL1        0.0361
      8 C          -0.3329   -0.4008    0.4185 C.ar    1  UNL1        0.1436
      9 N          -1.1859   -1.2289    1.0057 N.ar    1  UNL1       -0.2068
     10 C          -2.4330   -0.7499    0.7172 C.ar    1  UNL1        0.1998
     11 N          -3.6272   -1.2620    1.1000 N.ar    1  UNL1       -0.2020
     12 C          -4.7024   -0.5649    0.6584 C.ar    1  UNL1        0.1992
     13 N          -6.0252   -0.8359    0.8812 N.ar    1  UNL1       -0.2152
     14 C          -6.6748    0.1215    0.2503 C.ar    1  UNL1        0.0973
     15 N          -5.8268    1.0009   -0.3716 N.ar    1  UNL1       -0.3279
     16 C          -4.5562    0.5791   -0.1226 C.ar    1  UNL1        0.1791
     17 N          -3.3878    1.1217   -0.5254 N.ar    1  UNL1       -0.2052
     18 C          -2.3493    0.3954   -0.0628 C.ar    1  UNL1        0.1795
     19 N          -1.0168    0.6020   -0.2422 N.ar    1  UNL1       -0.3214
     20 C           1.9988    0.3614   -0.1676 C.ar    1  UNL1       -0.0389
     21 C           3.3896    0.1651   -0.0752 C.ar    1  UNL1        0.0199
     22 C           4.2991    1.0366   -0.6935 C.ar    1  UNL1       -0.0496
     23 H           6.3911    1.4537   -1.0383 H       1  UNL1        0.0633
     24 H           7.1077   -0.5364    0.2917 H       1  UNL1        0.0830
     25 H           1.1090   -2.3127    1.6741 H       1  UNL1        0.0837
     26 H          -7.7510    0.2301    0.2082 H       1  UNL1        0.1028
     27 H          -6.0833    1.8115   -0.9144 H       1  UNL1        0.1683
     28 H          -0.6199    1.3622   -0.7700 H       1  UNL1        0.1689
     29 H           1.6278    1.2102   -0.7329 H       1  UNL1        0.0632
     30 H           3.9543    1.8938   -1.2654 H       1  UNL1        0.0625
@<TRIPOS>BOND
     1     1     2   ar
     2     2     3   ar
     3     3     4   ar
     4     4     5   ar
     5     5     6   ar
     6     6     7   ar
     7     7     8    1
     8     8     9   ar
     9     9    10   ar
    10    10    11   ar
    11    11    12   ar
    12    12    13   ar
    13    13    14   ar
    14    14    15   ar
    15    15    16   ar
    16    16    17   ar
    17    17    18   ar
    18    18    19   ar
    19     7    20   ar
    20    20    21   ar
    21    21    22   ar
    22    22     1   ar
    23    21     4   ar
    24    19     8   ar
    25    18    10   ar
    26    16    12   ar
    27     1    23    1
    28     2    24    1
    29     6    25    1
    30    14    26    1
    31    15    27    1
    32    19    28    1
    33    20    29    1
    34    22    30    1
