@<TRIPOS>MOLECULE
*****
 32 36 0 0 0
SMALL
GASTEIGER

@<TRIPOS>ATOM
      1 C           5.4381    1.1523   -0.2802 C.ar    1  UNL1       -0.0429
      2 C           6.2253    0.0399   -0.0415 C.ar    1  UNL1        0.0289
      3 N           5.7663   -1.1995    0.2197 N.ar    1  UNL1       -0.2478
      4 C           4.4198   -1.2991    0.2358 C.ar    1  UNL1        0.1107
      5 S           3.6679   -2.7918    0.5495 S.2     1  UNL1       -0.0490
      6 C           2.1201   -2.1057    0.3984 C.ar    1  UNL1        0.1107
      7 N           1.0159   -2.8634    0.5549 N.ar    1  UNL1       -0.2471
      8 C          -0.1449   -2.1829    0.4063 C.ar    1  UNL1        0.0380
      9 C          -0.2864   -0.8266    0.1182 C.ar    1  UNL1        0.0171
     10 C          -1.5968   -0.1708   -0.0256 C.ar    1  UNL1        0.0490
     11 C          -1.9167    1.1510   -0.3070 C.ar    1  UNL1       -0.0272
     12 C          -3.3311    1.2916   -0.3421 C.ar    1  UNL1        0.0183
     13 C          -4.2080    2.3584   -0.5715 C.ar    1  UNL1        0.0367
     14 N          -5.5500    2.1654   -0.5356 N.ar    1  UNL1       -0.2625
     15 C          -6.0235    0.9267   -0.2748 C.ar    1  UNL1        0.0295
     16 C          -5.2388   -0.1917   -0.0348 C.ar    1  UNL1       -0.0196
     17 C          -3.8649    0.0355   -0.0778 C.ar    1  UNL1        0.0498
     18 N          -2.8077   -0.8242    0.1083 N.ar    1  UNL1       -0.3540
     19 C           0.9011   -0.0991   -0.0316 C.ar    1  UNL1       -0.0408
     20 C           2.1527   -0.7469    0.1103 C.ar    1  UNL1        0.0175
     21 C           3.5098   -0.2692    0.0141 C.ar    1  UNL1        0.0169
     22 C           4.0530    1.0074   -0.2546 C.ar    1  UNL1       -0.0500
     23 H           5.8931    2.1160   -0.4829 H       1  UNL1        0.0633
     24 H           7.3099    0.1246   -0.0554 H       1  UNL1        0.0830
     25 H          -1.0125   -2.8233    0.5390 H       1  UNL1        0.0836
     26 H          -1.2098    1.9529   -0.4744 H       1  UNL1        0.0645
     27 H          -3.8714    3.3664   -0.7839 H       1  UNL1        0.0836
     28 H          -7.1079    0.8494   -0.2624 H       1  UNL1        0.0830
     29 H          -5.6710   -1.1623    0.1694 H       1  UNL1        0.0653
     30 H          -2.9244   -1.8049    0.3158 H       1  UNL1        0.1659
     31 H           0.8842    0.9621   -0.2568 H       1  UNL1        0.0631
     32 H           3.4084    1.8617   -0.4382 H       1  UNL1        0.0625
@<TRIPOS>BOND
     1     1     2   ar
     2     2     3   ar
     3     3     4   ar
     4     4     5   ar
     5     5     6   ar
     6     6     7   ar
     7     7     8   ar
     8     8     9   ar
     9     9    10    1
    10    10    11   ar
    11    11    12   ar
    12    12    13   ar
    13    13    14   ar
    14    14    15   ar
    15    15    16   ar
    16    16    17   ar
    17    17    18   ar
    18     9    19   ar
    19    19    20   ar
    20    20    21   ar
    21    21    22   ar
    22    22     1   ar
    23    21     4   ar
    24    20     6   ar
    25    18    10   ar
    26    17    12   ar
    27     1    23    1
    28     2    24    1
    29     8    25    1
    30    11    26    1
    31    13    27    1
    32    15    28    1
    33    16    29    1
    34    18    30    1
    35    19    31    1
    36    22    32    1
