@<TRIPOS>MOLECULE
*****
 37 41 0 0 0
SMALL
GASTEIGER

@<TRIPOS>ATOM
      1 C           6.2627   -0.3128    1.5118 C.ar    1  UNL1       -0.0429
      2 C           7.1761   -0.5532    0.5010 C.ar    1  UNL1        0.0289
      3 N           6.8728   -0.7265   -0.8002 N.ar    1  UNL1       -0.2478
      4 C           5.5533   -0.6480   -1.0763 C.ar    1  UNL1        0.1107
      5 S           4.9910   -0.8445   -2.6690 S.2     1  UNL1       -0.0490
      6 C           3.3764   -0.6214   -2.1853 C.ar    1  UNL1        0.1107
      7 N           2.3770   -0.6727   -3.0897 N.ar    1  UNL1       -0.2472
      8 C           1.1470   -0.4774   -2.5626 C.ar    1  UNL1        0.0366
      9 C           0.8462   -0.2405   -1.2223 C.ar    1  UNL1        0.0009
     10 C          -0.5347   -0.0448   -0.7607 C.ar    1  UNL1       -0.0164
     11 C          -1.5385   -0.9749   -1.0594 C.ar    1  UNL1       -0.0534
     12 C          -2.8548   -0.7831   -0.6189 C.ar    1  UNL1       -0.0519
     13 C          -3.2244    0.3406    0.1406 C.ar    1  UNL1        0.0019
     14 C          -4.6188    0.5171    0.5946 C.ar    1  UNL1        0.0890
     15 C          -4.9766    1.2161    1.7486 C.ar    1  UNL1        0.0535
     16 N          -6.2596    1.3814    2.1633 N.ar    1  UNL1       -0.2596
     17 C          -7.1937    0.8098    1.3753 C.ar    1  UNL1        0.0457
     18 C          -6.8621    0.1051    0.2332 C.ar    1  UNL1        0.0464
     19 N          -5.5821   -0.0579   -0.1760 N.ar    1  UNL1       -0.2520
     20 C          -2.2138    1.2734    0.4288 C.ar    1  UNL1       -0.0519
     21 C          -0.8952    1.0830   -0.0102 C.ar    1  UNL1       -0.0534
     22 C           1.9301   -0.1981   -0.3345 C.ar    1  UNL1       -0.0422
     23 C           3.2447   -0.3944   -0.8198 C.ar    1  UNL1        0.0175
     24 C           4.5286   -0.4119   -0.1641 C.ar    1  UNL1        0.0169
     25 C           4.9107   -0.2385    1.1852 C.ar    1  UNL1       -0.0500
     26 H           6.5955   -0.1856    2.5364 H       1  UNL1        0.0633
     27 H           8.2383   -0.6163    0.7276 H       1  UNL1        0.0830
     28 H           0.3497   -0.5097   -3.3046 H       1  UNL1        0.0836
     29 H          -1.3096   -1.8717   -1.6328 H       1  UNL1        0.0624
     30 H          -3.6035   -1.5329   -0.8745 H       1  UNL1        0.0624
     31 H          -4.2349    1.6637    2.4008 H       1  UNL1        0.0851
     32 H          -8.2240    0.9318    1.6889 H       1  UNL1        0.0845
     33 H          -7.6213   -0.3520   -0.3911 H       1  UNL1        0.0845
     34 H          -2.4359    2.1834    0.9823 H       1  UNL1        0.0624
     35 H          -0.1527    1.8436    0.2261 H       1  UNL1        0.0624
     36 H           1.7670   -0.0291    0.7265 H       1  UNL1        0.0631
     37 H           4.1691   -0.0517    1.9561 H       1  UNL1        0.0625
@<TRIPOS>BOND
     1     1     2   ar
     2     2     3   ar
     3     3     4   ar
     4     4     5   ar
     5     5     6   ar
     6     6     7   ar
     7     7     8   ar
     8     8     9   ar
     9     9    10    1
    10    10    11   ar
    11    11    12   ar
    12    12    13   ar
    13    13    14    1
    14    14    15   ar
    15    15    16   ar
    16    16    17   ar
    17    17    18   ar
    18    18    19   ar
    19    13    20   ar
    20    20    21   ar
    21     9    22   ar
    22    22    23   ar
    23    23    24   ar
    24    24    25   ar
    25    25     1   ar
    26    24     4   ar
    27    23     6   ar
    28    21    10   ar
    29    19    14   ar
    30     1    26    1
    31     2    27    1
    32     8    28    1
    33    11    29    1
    34    12    30    1
    35    15    31    1
    36    17    32    1
    37    18    33    1
    38    20    34    1
    39    21    35    1
    40    22    36    1
    41    25    37    1
