@<TRIPOS>MOLECULE
*****
 31 35 0 0 0
SMALL
GASTEIGER

@<TRIPOS>ATOM
      1 C          -4.8465    2.1100    0.0417 C.ar    1  UNL1       -0.0429
      2 C          -5.8175    1.1358    0.1909 C.ar    1  UNL1        0.0289
      3 N          -5.5848   -0.1853    0.3153 N.ar    1  UNL1       -0.2478
      4 C          -4.2778   -0.5228    0.2829 C.ar    1  UNL1        0.1107
      5 S          -3.8022   -2.1494    0.4232 S.2     1  UNL1       -0.0490
      6 C          -2.1577   -1.7369    0.2970 C.ar    1  UNL1        0.1107
      7 N          -1.2063   -2.6921    0.3425 N.ar    1  UNL1       -0.2472
      8 C           0.0554   -2.2192    0.2301 C.ar    1  UNL1        0.0366
      9 C           0.4304   -0.8852    0.0799 C.ar    1  UNL1        0.0009
     10 C           1.8402   -0.4839   -0.0318 C.ar    1  UNL1       -0.0142
     11 C           2.3854    0.4742    0.8472 C.ar    1  UNL1       -0.0519
     12 C           3.7249    0.8856    0.7779 C.ar    1  UNL1       -0.0342
     13 C           4.4994    0.2936   -0.2170 C.ar    1  UNL1        0.0858
     14 N           5.8064    0.4244   -0.5941 N.ar    1  UNL1       -0.2571
     15 N           6.1098   -0.3685   -1.6345 N.ar    1  UNL1       -0.0673
     16 N           5.0098   -1.0370   -1.9591 N.ar    1  UNL1       -0.1297
     17 C           4.0107   -0.6515   -1.1063 C.ar    1  UNL1        0.1130
     18 C           2.6694   -1.0518   -1.0209 C.ar    1  UNL1       -0.0247
     19 C          -0.6057    0.0581    0.0408 C.ar    1  UNL1       -0.0422
     20 C          -1.9499   -0.3698    0.1511 C.ar    1  UNL1        0.0175
     21 C          -3.2006    0.3473    0.1399 C.ar    1  UNL1        0.0169
     22 C          -3.5095    1.7205    0.0146 C.ar    1  UNL1       -0.0500
     23 H          -5.1241    3.1544   -0.0526 H       1  UNL1        0.0633
     24 H          -6.8696    1.4117    0.2152 H       1  UNL1        0.0830
     25 H           0.8142   -2.9997    0.2768 H       1  UNL1        0.0836
     26 H           1.7564    0.9105    1.6240 H       1  UNL1        0.0624
     27 H           4.1267    1.6204    1.4671 H       1  UNL1        0.0639
     28 H           6.5304    1.0149   -0.2043 H       1  UNL1        0.1907
     29 H           2.2921   -1.7844   -1.7279 H       1  UNL1        0.0646
     30 H          -0.3852    1.1146   -0.0868 H       1  UNL1        0.0631
     31 H          -2.7243    2.4613   -0.1024 H       1  UNL1        0.0625
@<TRIPOS>BOND
     1     1     2   ar
     2     2     3   ar
     3     3     4   ar
     4     4     5   ar
     5     5     6   ar
     6     6     7   ar
     7     7     8   ar
     8     8     9   ar
     9     9    10    1
    10    10    11   ar
    11    11    12   ar
    12    12    13   ar
    13    13    14   ar
    14    14    15   ar
    15    15    16   ar
    16    16    17   ar
    17    17    18   ar
    18     9    19   ar
    19    19    20   ar
    20    20    21   ar
    21    21    22   ar
    22    22     1   ar
    23    21     4   ar
    24    20     6   ar
    25    18    10   ar
    26    17    13   ar
    27     1    23    1
    28     2    24    1
    29     8    25    1
    30    11    26    1
    31    12    27    1
    32    14    28    1
    33    18    29    1
    34    19    30    1
    35    22    31    1
