@<TRIPOS>MOLECULE
*****
 33 37 0 0 0
SMALL
GASTEIGER

@<TRIPOS>ATOM
      1 C          -5.5376    0.7209    1.2316 C.ar    1  UNL1       -0.0429
      2 C          -6.3683   -0.0046    0.3965 C.ar    1  UNL1        0.0289
      3 N          -5.9625   -0.7692   -0.6358 N.ar    1  UNL1       -0.2478
      4 C          -4.6248   -0.7883   -0.8183 C.ar    1  UNL1        0.1107
      5 S          -3.9377   -1.7043   -2.0755 S.2     1  UNL1       -0.0490
      6 C          -2.3660   -1.2228   -1.6416 C.ar    1  UNL1        0.1107
      7 N          -1.2974   -1.6671   -2.3343 N.ar    1  UNL1       -0.2472
      8 C          -0.1124   -1.2030   -1.8776 C.ar    1  UNL1        0.0366
      9 C           0.0819   -0.3420   -0.7982 C.ar    1  UNL1        0.0009
     10 C           1.4225    0.0995   -0.3879 C.ar    1  UNL1       -0.0143
     11 C           1.7182    1.4569   -0.2190 C.ar    1  UNL1       -0.0518
     12 C           2.9972    1.8644    0.1718 C.ar    1  UNL1       -0.0337
     13 C           4.0082    0.9442    0.4046 C.ar    1  UNL1        0.0892
     14 N           5.2283    1.3754    0.7808 N.ar    1  UNL1       -0.2519
     15 C           6.1625    0.4227    0.9891 C.ar    1  UNL1        0.0464
     16 C           5.8917   -0.9203    0.8291 C.ar    1  UNL1        0.0464
     17 N           4.6749   -1.3700    0.4534 N.ar    1  UNL1       -0.2519
     18 C           3.7292   -0.4340    0.2397 C.ar    1  UNL1        0.0897
     19 C           2.4524   -0.8261   -0.1501 C.ar    1  UNL1       -0.0265
     20 C          -1.0700    0.0833   -0.1216 C.ar    1  UNL1       -0.0422
     21 C          -2.3428   -0.3656   -0.5472 C.ar    1  UNL1        0.0175
     22 C          -3.6752   -0.1101   -0.0592 C.ar    1  UNL1        0.0169
     23 C          -4.1633    0.6752    1.0093 C.ar    1  UNL1       -0.0500
     24 H          -5.9509    1.3119    2.0421 H       1  UNL1        0.0633
     25 H          -7.4457    0.0129    0.5474 H       1  UNL1        0.0830
     26 H           0.7403   -1.5623   -2.4530 H       1  UNL1        0.0836
     27 H           0.9607    2.2171   -0.4027 H       1  UNL1        0.0624
     28 H           3.2111    2.9237    0.2941 H       1  UNL1        0.0640
     29 H           7.1425    0.7737    1.2908 H       1  UNL1        0.0845
     30 H           6.6484   -1.6776    0.9988 H       1  UNL1        0.0845
     31 H           2.2634   -1.8934   -0.2563 H       1  UNL1        0.0645
     32 H          -0.9938    0.7452    0.7371 H       1  UNL1        0.0631
     33 H          -3.4852    1.2332    1.6480 H       1  UNL1        0.0625
@<TRIPOS>BOND
     1     1     2   ar
     2     2     3   ar
     3     3     4   ar
     4     4     5   ar
     5     5     6   ar
     6     6     7   ar
     7     7     8   ar
     8     8     9   ar
     9     9    10    1
    10    10    11   ar
    11    11    12   ar
    12    12    13   ar
    13    13    14   ar
    14    14    15   ar
    15    15    16   ar
    16    16    17   ar
    17    17    18   ar
    18    18    19   ar
    19     9    20   ar
    20    20    21   ar
    21    21    22   ar
    22    22    23   ar
    23    23     1   ar
    24    22     4   ar
    25    21     6   ar
    26    19    10   ar
    27    18    13   ar
    28     1    24    1
    29     2    25    1
    30     8    26    1
    31    11    27    1
    32    12    28    1
    33    15    29    1
    34    16    30    1
    35    19    31    1
    36    20    32    1
    37    23    33    1
