@<TRIPOS>MOLECULE
*****
 31 35 0 0 0
SMALL
GASTEIGER

@<TRIPOS>ATOM
      1 C          -4.7386    1.4300   -1.5184 C.ar    1  UNL1       -0.0429
      2 C          -5.7733    1.2091   -0.6268 C.ar    1  UNL1        0.0289
      3 N          -5.6455    0.6630    0.5985 N.ar    1  UNL1       -0.2478
      4 C          -4.3791    0.3254    0.9236 C.ar    1  UNL1        0.1107
      5 S          -4.0321   -0.3771    2.4335 S.2     1  UNL1       -0.0490
      6 C          -2.3757   -0.4784    2.0663 C.ar    1  UNL1        0.1107
      7 N          -1.5042   -0.9961    2.9547 N.ar    1  UNL1       -0.2471
      8 C          -0.2190   -1.0133    2.5265 C.ar    1  UNL1        0.0381
      9 C           0.2672   -0.5622    1.2987 C.ar    1  UNL1        0.0206
     10 C           1.6928   -0.6179    0.9094 C.ar    1  UNL1        0.0930
     11 C           2.7173   -1.1184    1.7019 C.ar    1  UNL1        0.0561
     12 N           4.0143   -1.1545    1.3134 N.ar    1  UNL1       -0.2310
     13 C           4.2968   -0.6767    0.0976 C.ar    1  UNL1        0.1977
     14 N           5.5719   -0.6992   -0.3141 N.ar    1  UNL1       -0.2316
     15 C           5.8244   -0.2103   -1.5449 C.ar    1  UNL1        0.0482
     16 C           4.8261    0.2914   -2.3501 C.ar    1  UNL1        0.0482
     17 N           3.5367    0.3238   -1.9557 N.ar    1  UNL1       -0.2316
     18 C           3.2631   -0.1574   -0.7353 C.ar    1  UNL1        0.1983
     19 N           1.9881   -0.1349   -0.3233 N.ar    1  UNL1       -0.2231
     20 C          -0.7047   -0.0360    0.4271 C.ar    1  UNL1       -0.0407
     21 C          -2.0673    0.0145    0.8058 C.ar    1  UNL1        0.0175
     22 C          -3.2477    0.4895    0.1294 C.ar    1  UNL1        0.0169
     23 C          -3.4469    1.0675   -1.1443 C.ar    1  UNL1       -0.0500
     24 H          -4.9318    1.8766   -2.4880 H       1  UNL1        0.0633
     25 H          -6.7919    1.4829   -0.8934 H       1  UNL1        0.0830
     26 H           0.4442   -1.4390    3.2762 H       1  UNL1        0.0836
     27 H           2.5519   -1.5191    2.6956 H       1  UNL1        0.0852
     28 H           6.8601   -0.2346   -1.8654 H       1  UNL1        0.0846
     29 H           5.0333    0.6838   -3.3395 H       1  UNL1        0.0846
     30 H          -0.4177    0.3400   -0.5534 H       1  UNL1        0.0631
     31 H          -2.6126    1.2277   -1.8212 H       1  UNL1        0.0625
@<TRIPOS>BOND
     1     1     2   ar
     2     2     3   ar
     3     3     4   ar
     4     4     5   ar
     5     5     6   ar
     6     6     7   ar
     7     7     8   ar
     8     8     9   ar
     9     9    10    1
    10    10    11   ar
    11    11    12   ar
    12    12    13   ar
    13    13    14   ar
    14    14    15   ar
    15    15    16   ar
    16    16    17   ar
    17    17    18   ar
    18    18    19   ar
    19     9    20   ar
    20    20    21   ar
    21    21    22   ar
    22    22    23   ar
    23    23     1   ar
    24    22     4   ar
    25    21     6   ar
    26    19    10   ar
    27    18    13   ar
    28     1    24    1
    29     2    25    1
    30     8    26    1
    31    11    27    1
    32    15    28    1
    33    16    29    1
    34    20    30    1
    35    23    31    1
