@<TRIPOS>MOLECULE
*****
 25 28 0 0 0
SMALL
GASTEIGER

@<TRIPOS>ATOM
      1 C          -4.0369    1.1398    0.4194 C.ar    1  UNL1       -0.0429
      2 C          -4.7365    0.0369   -0.0368 C.ar    1  UNL1        0.0289
      3 N          -4.1833   -1.1031   -0.4939 N.ar    1  UNL1       -0.2478
      4 C          -2.8334   -1.1082   -0.4805 C.ar    1  UNL1        0.1107
      5 S          -1.9698   -2.4692   -1.0222 S.2     1  UNL1       -0.0490
      6 C          -0.4786   -1.7198   -0.7000 C.ar    1  UNL1        0.1107
      7 N           0.6802   -2.3658   -0.9447 N.ar    1  UNL1       -0.2472
      8 C           1.7869   -1.6511   -0.6423 C.ar    1  UNL1        0.0367
      9 C           1.8144   -0.3608   -0.1221 C.ar    1  UNL1        0.0054
     10 C           3.0721    0.2984    0.1689 C.ar    1  UNL1        0.0422
     11 C           4.3509   -0.2222    0.4757 C.ar    1  UNL1        0.0778
     12 N           5.2587    0.7376    0.6678 N.ar    1  UNL1       -0.0862
     13 O           4.5756    1.9269    0.4809 O.2     1  UNL1       -0.3623
     14 C           3.2795    1.6584    0.1832 C.ar    1  UNL1        0.1319
     15 C           0.5824    0.2603    0.1134 C.ar    1  UNL1       -0.0421
     16 C          -0.6148   -0.4358   -0.1835 C.ar    1  UNL1        0.0175
     17 C          -2.0049   -0.0748   -0.0516 C.ar    1  UNL1        0.0169
     18 C          -2.6446    1.0949    0.4167 C.ar    1  UNL1       -0.0500
     19 H          -4.5649    2.0197    0.7715 H       1  UNL1        0.0633
     20 H          -5.8244    0.0447   -0.0457 H       1  UNL1        0.0830
     21 H           2.7096   -2.1872   -0.8577 H       1  UNL1        0.0836
     22 H           4.6645   -1.2522    0.5746 H       1  UNL1        0.0870
     23 H           2.6625    2.5272    0.0071 H       1  UNL1        0.1064
     24 H           0.5235    1.2600    0.5327 H       1  UNL1        0.0631
     25 H          -2.0686    1.9452    0.7692 H       1  UNL1        0.0625
@<TRIPOS>BOND
     1     1     2   ar
     2     2     3   ar
     3     3     4   ar
     4     4     5   ar
     5     5     6   ar
     6     6     7   ar
     7     7     8   ar
     8     8     9   ar
     9     9    10    1
    10    10    11   ar
    11    11    12   ar
    12    12    13   ar
    13    13    14   ar
    14     9    15   ar
    15    15    16   ar
    16    16    17   ar
    17    17    18   ar
    18    18     1   ar
    19    17     4   ar
    20    16     6   ar
    21    14    10   ar
    22     1    19    1
    23     2    20    1
    24     8    21    1
    25    11    22    1
    26    14    23    1
    27    15    24    1
    28    18    25    1
