@<TRIPOS>MOLECULE
*****
 35 41 0 0 0
SMALL
GASTEIGER

@<TRIPOS>ATOM
      1 S          -0.2628    1.5337    1.5404 S.2     1  UNL1       -0.0875
      2 C          -0.6919    0.3536    0.3466 C.ar    1  UNL1        0.0310
      3 C           0.4942   -0.1828   -0.1774 C.ar    1  UNL1        0.0263
      4 C           1.6806    0.3624    0.3875 C.ar    1  UNL1        0.0082
      5 C           1.4242    1.3285    1.3565 C.ar    1  UNL1        0.0212
      6 C           2.4200    2.0456    2.0918 C.ar    1  UNL1       -0.0468
      7 C           3.7887    1.8374    1.9007 C.ar    1  UNL1       -0.0515
      8 C           4.0170    0.8776    0.9377 C.ar    1  UNL1        0.0001
      9 C           5.2841    0.4933    0.5680 C.ar    1  UNL1        0.0094
     10 N           5.1493   -0.4703   -0.4038 N.ar    1  UNL1       -0.3659
     11 C           3.8111   -0.7038   -0.6569 C.ar    1  UNL1        0.0100
     12 C           3.1017    0.1235    0.1663 C.ar    1  UNL1        0.0083
     13 C           0.3518   -1.1987   -1.2021 C.ar    1  UNL1        0.1093
     14 N           1.3714   -1.7970   -1.7909 N.ar    1  UNL1       -0.1901
     15 S           0.6842   -2.8563   -2.8666 S.2     1  UNL1        0.1165
     16 N          -0.9211   -2.5492   -2.5789 N.ar    1  UNL1       -0.1901
     17 C          -0.9855   -1.5965   -1.6206 C.ar    1  UNL1        0.1082
     18 C          -2.1829   -1.0522   -1.0887 C.ar    1  UNL1        0.0120
     19 C          -3.4603   -1.5214   -1.5782 C.ar    1  UNL1       -0.0513
     20 C          -4.6963   -1.0477   -1.1180 C.ar    1  UNL1       -0.0529
     21 C          -4.5386   -0.0754   -0.1371 C.ar    1  UNL1       -0.0102
     22 C          -5.6391    0.5110    0.4385 C.ar    1  UNL1       -0.0166
     23 S          -5.1824    1.6680    1.6094 S.2     1  UNL1       -0.1039
     24 C          -3.5078    1.3767    1.3386 C.ar    1  UNL1       -0.0160
     25 C          -3.2671    0.4189    0.3776 C.ar    1  UNL1       -0.0020
     26 C          -2.0002   -0.0475   -0.0748 C.ar    1  UNL1        0.0068
     27 H           2.1032    2.7823    2.8291 H       1  UNL1        0.0629
     28 H           4.5501    2.3731    2.4503 H       1  UNL1        0.0624
     29 H           6.2648    0.8083    0.8983 H       1  UNL1        0.0813
     30 H           5.9144   -0.9420   -0.8682 H       1  UNL1        0.1648
     31 H           3.5595   -1.4391   -1.4004 H       1  UNL1        0.0813
     32 H          -3.4756   -2.2909   -2.3531 H       1  UNL1        0.0624
     33 H          -5.6413   -1.4129   -1.4984 H       1  UNL1        0.0624
     34 H          -6.6866    0.3281    0.2403 H       1  UNL1        0.0699
     35 H          -2.8307    1.9614    1.9364 H       1  UNL1        0.0700
@<TRIPOS>BOND
     1     1     2   ar
     2     2     3   ar
     3     3     4   ar
     4     4     5   ar
     5     5     6   ar
     6     6     7   ar
     7     7     8   ar
     8     8     9   ar
     9     9    10   ar
    10    10    11   ar
    11    11    12   ar
    12     3    13   ar
    13    13    14   ar
    14    14    15   ar
    15    15    16   ar
    16    16    17   ar
    17    17    18   ar
    18    18    19   ar
    19    19    20   ar
    20    20    21   ar
    21    21    22   ar
    22    22    23   ar
    23    23    24   ar
    24    24    25   ar
    25    25    26   ar
    26     5     1   ar
    27    12     8   ar
    28    17    13   ar
    29    26    18   ar
    30    26     2   ar
    31    12     4   ar
    32    25    21   ar
    33     6    27    1
    34     7    28    1
    35     9    29    1
    36    10    30    1
    37    11    31    1
    38    19    32    1
    39    20    33    1
    40    22    34    1
    41    24    35    1
