@<TRIPOS>MOLECULE
*****
 41 47 0 0 0
SMALL
GASTEIGER

@<TRIPOS>ATOM
      1 SI         -1.4926   -0.9431    0.9678 Si      1  UNL1        0.0000
      2 C          -2.4621    0.1804   -0.1913 C.2     1  UNL1        0.0000
      3 C          -1.6259    0.8858   -0.9866 C.2     1  UNL1        0.0000
      4 C          -0.1737    0.6345   -0.7850 C.ar    1  UNL1        0.0000
      5 C           0.0811   -0.3176    0.2239 C.ar    1  UNL1        0.0000
      6 C           1.3865   -0.6943    0.5671 C.ar    1  UNL1        0.0000
      7 S           1.8777   -1.8310    1.7631 S.2     1  UNL1        0.0000
      8 C           3.5332   -1.6051    1.4441 C.ar    1  UNL1        0.0000
      9 C           4.6231   -2.2335    2.0673 C.ar    1  UNL1        0.0000
     10 C           5.8959   -1.8867    1.6365 C.ar    1  UNL1        0.0000
     11 C           6.0176   -0.9525    0.6290 C.ar    1  UNL1        0.0000
     12 N           4.9926   -0.3359    0.0153 N.ar    1  UNL1        0.0000
     13 C           3.7336   -0.6696    0.4316 C.ar    1  UNL1        0.0000
     14 C           2.4855   -0.1234   -0.0962 C.ar    1  UNL1        0.0000
     15 C           2.2184    0.8568   -1.1349 C.ar    1  UNL1        0.0000
     16 C           3.2876    1.4643   -1.8362 C.ar    1  UNL1        0.0000
     17 C           3.0672    2.4092   -2.8391 C.ar    1  UNL1        0.0000
     18 C           1.7725    2.7742   -3.1702 C.ar    1  UNL1        0.0000
     19 C           0.6967    2.1942   -2.4981 C.ar    1  UNL1        0.0000
     20 C           0.8868    1.2335   -1.4768 C.ar    1  UNL1        0.0000
     21 C          -3.8870    0.2557   -0.2053 C.ar    1  UNL1        0.0000
     22 S          -4.7398    1.3364   -1.3259 S.2     1  UNL1        0.0000
     23 C          -6.3128    0.8983   -0.7816 C.ar    1  UNL1        0.0000
     24 C          -6.1629   -0.0133    0.1903 C.ar    1  UNL1        0.0000
     25 O          -7.1745   -0.6094    0.8780 O.2     1  UNL1        0.0000
     26 C          -6.4379   -1.4208    1.7149 C.ar    1  UNL1        0.0000
     27 C          -5.0529   -1.3166    1.5380 C.ar    1  UNL1        0.0000
     28 C          -4.8711   -0.3653    0.5077 C.ar    1  UNL1        0.0000
     29 H          -1.7437   -2.3825    0.6954 H       1  UNL1        0.0000
     30 H          -1.6645   -0.5617    2.3940 H       1  UNL1        0.0000
     31 H          -1.9506    1.5963   -1.7331 H       1  UNL1        0.0000
     32 H           4.4762   -2.9634    2.8568 H       1  UNL1        0.0000
     33 H           6.7761   -2.3388    2.0805 H       1  UNL1        0.0000
     34 H           7.0017   -0.6601    0.2699 H       1  UNL1        0.0000
     35 H           4.3203    1.2120   -1.6137 H       1  UNL1        0.0000
     36 H           3.9120    2.8554   -3.3571 H       1  UNL1        0.0000
     37 H           1.5949    3.5094   -3.9505 H       1  UNL1        0.0000
     38 H          -0.3008    2.5102   -2.7906 H       1  UNL1        0.0000
     39 H          -7.2280    1.3100   -1.1807 H       1  UNL1        0.0000
     40 H          -7.0391   -2.0199    2.3865 H       1  UNL1        0.0000
     41 H          -4.3174   -1.8720    2.1000 H       1  UNL1        0.0000
@<TRIPOS>BOND
     1     1     2    1
     2     2     3    2
     3     3     4    1
     4     4     5   ar
     5     5     6   ar
     6     6     7   ar
     7     7     8   ar
     8     8     9   ar
     9     9    10   ar
    10    10    11   ar
    11    11    12   ar
    12    12    13   ar
    13    13    14   ar
    14    14    15   ar
    15    15    16   ar
    16    16    17   ar
    17    17    18   ar
    18    18    19   ar
    19    19    20   ar
    20     2    21    1
    21    21    22   ar
    22    22    23   ar
    23    23    24   ar
    24    24    25   ar
    25    25    26   ar
    26    26    27   ar
    27    27    28   ar
    28     5     1    1
    29    14     6   ar
    30    20    15   ar
    31    28    21   ar
    32    20     4   ar
    33    28    24   ar
    34    13     8   ar
    35     1    29    1
    36     1    30    1
    37     3    31    1
    38     9    32    1
    39    10    33    1
    40    11    34    1
    41    16    35    1
    42    17    36    1
    43    18    37    1
    44    19    38    1
    45    23    39    1
    46    26    40    1
    47    27    41    1
