@<TRIPOS>MOLECULE
*****
 47 53 0 0 0
SMALL
GASTEIGER

@<TRIPOS>ATOM
      1 SI         -6.5779   -1.0890   -1.1643 Si      1  UNL1        0.0000
      2 C          -6.9860   -0.1481    0.4003 C.2     1  UNL1        0.0000
      3 C          -5.8622    0.2851    1.0039 C.ar    1  UNL1        0.0000
      4 C          -5.8429    1.0533    2.2501 C.ar    1  UNL1        0.0000
      5 C          -4.6714    1.4504    2.7907 C.ar    1  UNL1        0.0000
      6 C          -3.4937    1.0828    2.0886 C.ar    1  UNL1        0.0000
      7 N          -2.2408    1.4112    2.5108 N.ar    1  UNL1        0.0000
      8 C          -1.3049    0.9152    1.6212 C.ar    1  UNL1        0.0000
      9 C           0.0972    1.0162    1.6595 C.ar    1  UNL1        0.0000
     10 C           0.8614    0.4303    0.6402 C.ar    1  UNL1        0.0000
     11 C           2.3031    0.5305    0.6730 C.ar    1  UNL1        0.0000
     12 C           3.1991   -0.0192   -0.2877 C.ar    1  UNL1        0.0000
     13 C           4.6500    0.0982   -0.2181 C.ar    1  UNL1        0.0000
     14 C           5.4655   -1.0376   -0.0934 C.ar    1  UNL1        0.0000
     15 C           6.8555   -0.9198   -0.0135 C.ar    1  UNL1        0.0000
     16 C           7.4515    0.3383   -0.0541 C.ar    1  UNL1        0.0000
     17 C           6.6591    1.4776   -0.1727 C.ar    1  UNL1        0.0000
     18 C           5.2691    1.3576   -0.2515 C.ar    1  UNL1        0.0000
     19 C           2.4866   -0.6769   -1.2957 C.ar    1  UNL1        0.0000
     20 C           2.9976   -1.3011   -2.4088 C.ar    1  UNL1        0.0000
     21 N           1.9328   -1.7990   -3.1264 N.ar    1  UNL1        0.0000
     22 C           0.7475   -1.4929   -2.4941 C.ar    1  UNL1        0.0000
     23 C           1.0623   -0.7890   -1.3560 C.ar    1  UNL1        0.0000
     24 C           0.1640   -0.2519   -0.4022 C.ar    1  UNL1        0.0000
     25 C          -1.2505   -0.3469   -0.4318 C.ar    1  UNL1        0.0000
     26 C          -1.9983    0.2487    0.6011 C.ar    1  UNL1        0.0000
     27 C          -3.3795    0.3644    0.9117 C.ar    1  UNL1        0.0000
     28 C          -4.5934   -0.0805    0.2972 C.ar    1  UNL1        0.0000
     29 C          -4.7641   -0.7870   -0.8353 C.2     1  UNL1        0.0000
     30 H          -6.9421   -2.5235   -1.0709 H       1  UNL1        0.0000
     31 H          -7.0589   -0.3931   -2.3824 H       1  UNL1        0.0000
     32 H          -8.0037   -0.0040    0.7250 H       1  UNL1        0.0000
     33 H          -6.7859    1.2954    2.7275 H       1  UNL1        0.0000
     34 H          -4.6357    2.0197    3.7124 H       1  UNL1        0.0000
     35 H          -2.0157    1.9358    3.3436 H       1  UNL1        0.0000
     36 H           0.5793    1.5458    2.4767 H       1  UNL1        0.0000
     37 H           2.7521    1.0655    1.5131 H       1  UNL1        0.0000
     38 H           5.0144   -2.0272   -0.0512 H       1  UNL1        0.0000
     39 H           7.4698   -1.8110    0.0832 H       1  UNL1        0.0000
     40 H           8.5325    0.4310    0.0078 H       1  UNL1        0.0000
     41 H           7.1205    2.4610   -0.2057 H       1  UNL1        0.0000
     42 H           4.6654    2.2576   -0.3507 H       1  UNL1        0.0000
     43 H           4.0101   -1.4360   -2.7647 H       1  UNL1        0.0000
     44 H           2.0101   -2.3078   -3.9974 H       1  UNL1        0.0000
     45 H          -0.1956   -1.8013   -2.9227 H       1  UNL1        0.0000
     46 H          -1.7463   -0.8714   -1.2387 H       1  UNL1        0.0000
     47 H          -4.0068   -1.1570   -1.5038 H       1  UNL1        0.0000
@<TRIPOS>BOND
     1     1     2    1
     2     2     3    2
     3     3     4   ar
     4     4     5   ar
     5     5     6   ar
     6     6     7   ar
     7     7     8   ar
     8     8     9   ar
     9     9    10   ar
    10    10    11   ar
    11    11    12   ar
    12    12    13    1
    13    13    14   ar
    14    14    15   ar
    15    15    16   ar
    16    16    17   ar
    17    17    18   ar
    18    12    19   ar
    19    19    20   ar
    20    20    21   ar
    21    21    22   ar
    22    22    23   ar
    23    23    24   ar
    24    24    25   ar
    25    25    26   ar
    26    26    27   ar
    27    27    28   ar
    28    28    29    2
    29    29     1    1
    30    28     3   ar
    31    27     6   ar
    32    26     8   ar
    33    24    10   ar
    34    18    13   ar
    35    23    19   ar
    36     1    30    1
    37     1    31    1
    38     2    32    1
    39     4    33    1
    40     5    34    1
    41     7    35    1
    42     9    36    1
    43    11    37    1
    44    14    38    1
    45    15    39    1
    46    16    40    1
    47    17    41    1
    48    18    42    1
    49    20    43    1
    50    21    44    1
    51    22    45    1
    52    25    46    1
    53    29    47    1
