@<TRIPOS>MOLECULE
*****
 25 28 0 0 0
SMALL
GASTEIGER

@<TRIPOS>ATOM
      1 C           3.7014    1.6030    1.3476 C.ar    1  UNL1       -0.0429
      2 C           4.6374    1.1169    0.4522 C.ar    1  UNL1        0.0289
      3 N           4.3715    0.3141   -0.5968 N.ar    1  UNL1       -0.2478
      4 C           3.0666   -0.0063   -0.7309 C.ar    1  UNL1        0.1107
      5 S           2.5500   -1.0121   -2.0014 S.2     1  UNL1       -0.0490
      6 C           0.9314   -0.9200   -1.4896 C.ar    1  UNL1        0.1107
      7 N          -0.0393   -1.5723   -2.1627 N.ar    1  UNL1       -0.2471
      8 C          -1.2788   -1.4086   -1.6417 C.ar    1  UNL1        0.0381
      9 C          -1.6092   -0.6556   -0.5202 C.ar    1  UNL1        0.0196
     10 C          -2.9725   -0.5237   -0.0139 C.ar    1  UNL1        0.0796
     11 C          -4.0925   -1.1164   -0.5691 C.ar    1  UNL1        0.0031
     12 S          -5.4963   -0.7061    0.3326 S.2     1  UNL1       -0.0833
     13 C          -4.5196    0.2228    1.3874 C.ar    1  UNL1        0.0654
     14 N          -3.2343    0.2461    1.1147 N.ar    1  UNL1       -0.2474
     15 C          -0.5565   -0.0029    0.1340 C.ar    1  UNL1       -0.0407
     16 C           0.7637   -0.1313   -0.3573 C.ar    1  UNL1        0.0175
     17 C           2.0228    0.4083    0.0913 C.ar    1  UNL1        0.0169
     18 C           2.3657    1.2487    1.1741 C.ar    1  UNL1       -0.0500
     19 H           4.0041    2.2463    2.1670 H       1  UNL1        0.0633
     20 H           5.6877    1.3778    0.5644 H       1  UNL1        0.0830
     21 H          -2.0376   -1.9454   -2.2053 H       1  UNL1        0.0836
     22 H          -4.1823   -1.7563   -1.4342 H       1  UNL1        0.0715
     23 H          -4.9421    0.7575    2.2283 H       1  UNL1        0.0907
     24 H          -0.7473    0.6021    1.0173 H       1  UNL1        0.0631
     25 H           1.6061    1.6133    1.8594 H       1  UNL1        0.0625
@<TRIPOS>BOND
     1     1     2   ar
     2     2     3   ar
     3     3     4   ar
     4     4     5   ar
     5     5     6   ar
     6     6     7   ar
     7     7     8   ar
     8     8     9   ar
     9     9    10    1
    10    10    11   ar
    11    11    12   ar
    12    12    13   ar
    13    13    14   ar
    14     9    15   ar
    15    15    16   ar
    16    16    17   ar
    17    17    18   ar
    18    18     1   ar
    19    17     4   ar
    20    16     6   ar
    21    14    10   ar
    22     1    19    1
    23     2    20    1
    24     8    21    1
    25    11    22    1
    26    13    23    1
    27    15    24    1
    28    18    25    1
