@<TRIPOS>MOLECULE
*****
 24 27 0 0 0
SMALL
GASTEIGER

@<TRIPOS>ATOM
      1 C           3.6599    0.6065    1.6962 C.ar    1  UNL1       -0.0429
      2 C           4.5236   -0.1184    0.8947 C.ar    1  UNL1        0.0289
      3 N           4.1661   -0.8388   -0.1862 N.ar    1  UNL1       -0.2478
      4 C           2.8437   -0.8111   -0.4573 C.ar    1  UNL1        0.1107
      5 S           2.2164   -1.6656   -1.7870 S.2     1  UNL1       -0.0490
      6 C           0.6336   -1.1494   -1.4429 C.ar    1  UNL1        0.1107
      7 N          -0.3987   -1.5371   -2.2212 N.ar    1  UNL1       -0.2471
      8 C          -1.6004   -1.0513   -1.8300 C.ar    1  UNL1        0.0397
      9 C          -1.8296   -0.2237   -0.7378 C.ar    1  UNL1        0.0412
     10 C          -3.1645    0.2434   -0.4036 C.ar    1  UNL1        0.2033
     11 N          -3.4059    1.0657    0.6782 N.ar    1  UNL1       -0.1941
     12 C          -4.7018    1.2377    0.6130 C.ar    1  UNL1        0.2147
     13 O          -5.2903    0.5899   -0.4215 O.2     1  UNL1       -0.3411
     14 N          -4.2691   -0.0732   -1.1005 N.ar    1  UNL1       -0.0564
     15 C          -0.7226    0.1470    0.0344 C.ar    1  UNL1       -0.0391
     16 C           0.5613   -0.3278   -0.3225 C.ar    1  UNL1        0.0176
     17 C           1.8652   -0.1279    0.2594 C.ar    1  UNL1        0.0169
     18 C           2.3028    0.6094    1.3826 C.ar    1  UNL1       -0.0500
     19 H           4.0346    1.1603    2.5505 H       1  UNL1        0.0633
     20 H           5.5885   -0.1382    1.1167 H       1  UNL1        0.0830
     21 H          -2.4233   -1.3728   -2.4676 H       1  UNL1        0.0837
     22 H          -5.3462    1.8138    1.2596 H       1  UNL1        0.1283
     23 H          -0.8425    0.7930    0.9005 H       1  UNL1        0.0632
     24 H           1.5994    1.1687    1.9923 H       1  UNL1        0.0625
@<TRIPOS>BOND
     1     1     2   ar
     2     2     3   ar
     3     3     4   ar
     4     4     5   ar
     5     5     6   ar
     6     6     7   ar
     7     7     8   ar
     8     8     9   ar
     9     9    10    1
    10    10    11   ar
    11    11    12   ar
    12    12    13   ar
    13    13    14   ar
    14     9    15   ar
    15    15    16   ar
    16    16    17   ar
    17    17    18   ar
    18    18     1   ar
    19    17     4   ar
    20    16     6   ar
    21    14    10   ar
    22     1    19    1
    23     2    20    1
    24     8    21    1
    25    12    22    1
    26    15    23    1
    27    18    24    1
