@<TRIPOS>MOLECULE
*****
 29 32 0 0 0
SMALL
GASTEIGER

@<TRIPOS>ATOM
      1 C          -4.8931   -0.7155   -0.4953 C.ar    1  UNL1       -0.0430
      2 C          -5.4752    0.5378   -0.4201 C.ar    1  UNL1        0.0276
      3 N          -4.7854    1.6672   -0.1612 N.ar    1  UNL1       -0.2627
      4 C          -3.4499    1.5317    0.0300 C.ar    1  UNL1        0.0353
      5 C          -2.7537    0.3222   -0.0182 C.ar    1  UNL1        0.0003
      6 C          -3.5179   -0.8197   -0.2915 C.ar    1  UNL1       -0.0512
      7 C          -1.3021    0.2502    0.2052 C.ar    1  UNL1       -0.0154
      8 C          -0.7198    0.8203    1.3400 C.ar    1  UNL1       -0.0533
      9 C           0.6622    0.7556    1.5616 C.ar    1  UNL1       -0.0523
     10 C           1.5152    0.1063    0.6344 C.ar    1  UNL1       -0.0016
     11 C           0.9269   -0.4600   -0.4949 C.ar    1  UNL1        0.0211
     12 C          -0.4652   -0.3972   -0.7197 C.ar    1  UNL1       -0.0396
     13 S           2.0958   -1.2000   -1.5090 S.2     1  UNL1       -0.0881
     14 C           3.3965   -0.7867   -0.4714 C.ar    1  UNL1        0.0234
     15 C           4.7518   -1.0832   -0.6625 C.ar    1  UNL1       -0.0292
     16 C           5.6153   -0.6408    0.3206 C.ar    1  UNL1        0.0286
     17 N           5.2328    0.0383    1.4166 N.ar    1  UNL1       -0.2626
     18 C           3.9200    0.3182    1.5878 C.ar    1  UNL1        0.0363
     19 C           2.9538   -0.0848    0.6492 C.ar    1  UNL1        0.0150
     20 H          -5.4948   -1.5930   -0.7038 H       1  UNL1        0.0633
     21 H          -6.5429    0.6701   -0.5700 H       1  UNL1        0.0829
     22 H          -2.9322    2.4686    0.2227 H       1  UNL1        0.0836
     23 H          -3.0488   -1.8000   -0.3351 H       1  UNL1        0.0625
     24 H          -1.3400    1.3174    2.0851 H       1  UNL1        0.0624
     25 H           1.0753    1.2092    2.4598 H       1  UNL1        0.0624
     26 H          -0.8818   -0.8421   -1.6210 H       1  UNL1        0.0635
     27 H           5.1057   -1.6273   -1.5294 H       1  UNL1        0.0644
     28 H           6.6830   -0.8308    0.2462 H       1  UNL1        0.0830
     29 H           3.6683    0.8681    2.4883 H       1  UNL1        0.0836
@<TRIPOS>BOND
     1     1     2   ar
     2     2     3   ar
     3     3     4   ar
     4     4     5   ar
     5     5     6   ar
     6     5     7    1
     7     7     8   ar
     8     8     9   ar
     9     9    10   ar
    10    10    11   ar
    11    11    12   ar
    12    11    13   ar
    13    13    14   ar
    14    14    15   ar
    15    15    16   ar
    16    16    17   ar
    17    17    18   ar
    18    18    19   ar
    19     6     1   ar
    20    12     7   ar
    21    19    14   ar
    22    19    10   ar
    23     1    20    1
    24     2    21    1
    25     4    22    1
    26     6    23    1
    27     8    24    1
    28     9    25    1
    29    12    26    1
    30    15    27    1
    31    16    28    1
    32    18    29    1
