@<TRIPOS>MOLECULE
*****
 43 49 0 0 0
SMALL
GASTEIGER

@<TRIPOS>ATOM
      1 C           7.5578   -0.3670   -0.1132 C.ar    1  UNL1       -0.0430
      2 C           7.9610    0.1594   -1.3269 C.ar    1  UNL1        0.0276
      3 N           7.1035    0.6026   -2.2682 N.ar    1  UNL1       -0.2627
      4 C           5.7828    0.5071   -1.9800 C.ar    1  UNL1        0.0354
      5 C           5.2558   -0.0005   -0.7899 C.ar    1  UNL1        0.0038
      6 C           6.1914   -0.4433    0.1542 C.ar    1  UNL1       -0.0510
      7 C           3.8154   -0.0443   -0.5462 C.ar    1  UNL1        0.0299
      8 C           2.9479    1.0365   -0.7701 C.ar    1  UNL1        0.0382
      9 N           1.5918    1.0912   -0.5781 N.ar    1  UNL1       -0.2515
     10 C           0.9150    0.0039   -0.1013 C.ar    1  UNL1        0.1078
     11 C          -0.5115    0.1165    0.1088 C.ar    1  UNL1        0.0677
     12 S          -1.5306    0.5309   -1.2143 S.2     1  UNL1       -0.0822
     13 C          -2.9591    0.4423   -0.2640 C.ar    1  UNL1        0.0495
     14 C          -4.2468    0.6855   -0.8898 C.ar    1  UNL1        0.0190
     15 C          -4.6936    1.9705   -1.2649 C.ar    1  UNL1       -0.0513
     16 C          -5.9563    2.2039   -1.8583 C.ar    1  UNL1       -0.0590
     17 C          -6.8790    1.1776   -2.1266 C.ar    1  UNL1       -0.0335
     18 C          -6.4820   -0.1353   -1.7725 C.ar    1  UNL1        0.1005
     19 N          -7.2137   -1.2463   -1.9493 N.ar    1  UNL1       -0.1908
     20 S          -6.2968   -2.5061   -1.3756 S.2     1  UNL1        0.1165
     21 N          -4.9281   -1.7050   -0.8918 N.ar    1  UNL1       -0.1901
     22 C          -5.1345   -0.3985   -1.1394 C.ar    1  UNL1        0.1081
     23 C          -2.6630    0.1319    1.0436 C.ar    1  UNL1        0.1046
     24 N          -3.6042    0.0330    2.0280 N.ar    1  UNL1       -0.2508
     25 C          -3.0291   -0.2826    3.2192 C.ar    1  UNL1        0.0464
     26 C          -1.6574   -0.4640    3.4295 C.ar    1  UNL1        0.0464
     27 N          -0.6953   -0.3522    2.4738 N.ar    1  UNL1       -0.2507
     28 C          -1.2465   -0.0569    1.2592 C.ar    1  UNL1        0.1061
     29 C           1.6380   -1.1837    0.1609 C.ar    1  UNL1        0.1269
     30 N           1.1627   -2.3703    0.5823 N.ar    1  UNL1       -0.1886
     31 S           2.4578   -3.3902    0.7130 S.2     1  UNL1        0.1166
     32 N           3.6842   -2.3932    0.2195 N.ar    1  UNL1       -0.1900
     33 C           3.1346   -1.1981   -0.0676 C.ar    1  UNL1        0.1112
     34 H           8.2876   -0.7116    0.6109 H       1  UNL1        0.0633
     35 H           9.0138    0.2400   -1.5818 H       1  UNL1        0.0829
     36 H           5.1351    0.8619   -2.7788 H       1  UNL1        0.0836
     37 H           5.8660   -0.8519    1.1089 H       1  UNL1        0.0625
     38 H           3.3539    1.9831   -1.1324 H       1  UNL1        0.0836
     39 H          -4.0440    2.8280   -1.0845 H       1  UNL1        0.0624
     40 H          -6.2277    3.2282   -2.1163 H       1  UNL1        0.0618
     41 H          -7.8435    1.3723   -2.5804 H       1  UNL1        0.0640
     42 H          -3.7257   -0.3916    4.0457 H       1  UNL1        0.0845
     43 H          -1.2876   -0.7137    4.4200 H       1  UNL1        0.0845
@<TRIPOS>BOND
     1     1     2   ar
     2     2     3   ar
     3     3     4   ar
     4     4     5   ar
     5     5     6   ar
     6     5     7    1
     7     7     8   ar
     8     8     9   ar
     9     9    10   ar
    10    10    11    1
    11    11    12   ar
    12    12    13   ar
    13    13    14    1
    14    14    15   ar
    15    15    16   ar
    16    16    17   ar
    17    17    18   ar
    18    18    19   ar
    19    19    20   ar
    20    20    21   ar
    21    21    22   ar
    22    13    23   ar
    23    23    24   ar
    24    24    25   ar
    25    25    26   ar
    26    26    27   ar
    27    27    28   ar
    28    10    29   ar
    29    29    30   ar
    30    30    31   ar
    31    31    32   ar
    32    32    33   ar
    33     6     1   ar
    34    33     7   ar
    35    28    11   ar
    36    33    29   ar
    37    22    14   ar
    38    28    23   ar
    39    22    18   ar
    40     1    34    1
    41     2    35    1
    42     4    36    1
    43     6    37    1
    44     8    38    1
    45    15    39    1
    46    16    40    1
    47    17    41    1
    48    25    42    1
    49    26    43    1
