@<TRIPOS>MOLECULE
*****
 38 43 0 0 0
SMALL
GASTEIGER

@<TRIPOS>ATOM
      1 C           6.6395   -0.8649   -0.9983 C.ar    1  UNL1       -0.0430
      2 C           7.1803   -0.5025    0.2226 C.ar    1  UNL1        0.0276
      3 N           6.4530    0.0001    1.2406 N.ar    1  UNL1       -0.2627
      4 C           5.1230    0.1463    1.0234 C.ar    1  UNL1        0.0353
      5 C           4.4656   -0.1860   -0.1629 C.ar    1  UNL1        0.0017
      6 C           5.2678   -0.7035   -1.1888 C.ar    1  UNL1       -0.0511
      7 C           3.0194   -0.0038   -0.3254 C.ar    1  UNL1        0.0023
      8 C           2.4767    0.6532   -1.4254 C.ar    1  UNL1        0.0360
      9 N           1.1522    0.8511   -1.6362 N.ar    1  UNL1       -0.2544
     10 C           0.2893    0.3847   -0.7191 C.ar    1  UNL1        0.0717
     11 C          -1.0767    0.5659   -0.8947 C.ar    1  UNL1       -0.0259
     12 C          -2.0530    0.1011    0.0291 C.ar    1  UNL1        0.0122
     13 C          -1.5883   -0.5753    1.1735 C.ar    1  UNL1        0.0723
     14 C          -0.2270   -0.7593    1.3544 C.ar    1  UNL1       -0.0265
     15 C           0.7185   -0.2909    0.4295 C.ar    1  UNL1        0.0030
     16 C           2.0989   -0.4793    0.6145 C.ar    1  UNL1       -0.0433
     17 N          -2.3992   -1.0624    2.1190 N.ar    1  UNL1       -0.2543
     18 C          -3.7317   -0.9000    1.9743 C.ar    1  UNL1        0.0360
     19 C          -4.3482   -0.2602    0.9104 C.ar    1  UNL1        0.0030
     20 C          -5.7677   -0.1600    0.8847 C.ar    1  UNL1       -0.0504
     21 C          -6.4870    0.4644   -0.1414 C.ar    1  UNL1       -0.0329
     22 C          -5.7124    1.0081   -1.1840 C.ar    1  UNL1        0.1005
     23 N          -6.2118    1.6441   -2.2543 N.ar    1  UNL1       -0.1908
     24 S          -4.9161    2.0919   -3.1823 S.2     1  UNL1        0.1165
     25 N          -3.6707    1.4993   -2.2697 N.ar    1  UNL1       -0.1901
     26 C          -4.2011    0.9148   -1.1802 C.ar    1  UNL1        0.1082
     27 C          -3.4848    0.2599   -0.0996 C.ar    1  UNL1        0.0210
     28 H           7.2690   -1.2682   -1.7837 H       1  UNL1        0.0633
     29 H           8.2430   -0.6105    0.4200 H       1  UNL1        0.0829
     30 H           4.5811    0.5669    1.8675 H       1  UNL1        0.0836
     31 H           4.8300   -0.9991   -2.1399 H       1  UNL1        0.0625
     32 H           3.1139    1.0695   -2.2028 H       1  UNL1        0.0836
     33 H          -1.3756    1.0942   -1.7959 H       1  UNL1        0.0646
     34 H           0.1041   -1.2859    2.2479 H       1  UNL1        0.0645
     35 H           2.4524   -1.0149    1.4941 H       1  UNL1        0.0631
     36 H          -4.3119   -1.3272    2.7903 H       1  UNL1        0.0836
     37 H          -6.3462   -0.5899    1.7055 H       1  UNL1        0.0625
     38 H          -7.5683    0.5286   -0.1395 H       1  UNL1        0.0640
@<TRIPOS>BOND
     1     1     2   ar
     2     2     3   ar
     3     3     4   ar
     4     4     5   ar
     5     5     6   ar
     6     5     7    1
     7     7     8   ar
     8     8     9   ar
     9     9    10   ar
    10    10    11   ar
    11    11    12   ar
    12    12    13   ar
    13    13    14   ar
    14    14    15   ar
    15    15    16   ar
    16    13    17   ar
    17    17    18   ar
    18    18    19   ar
    19    19    20   ar
    20    20    21   ar
    21    21    22   ar
    22    22    23   ar
    23    23    24   ar
    24    24    25   ar
    25    25    26   ar
    26    26    27   ar
    27     6     1   ar
    28    16     7   ar
    29    27    19   ar
    30    15    10   ar
    31    26    22   ar
    32    27    12   ar
    33     1    28    1
    34     2    29    1
    35     4    30    1
    36     6    31    1
    37     8    32    1
    38    11    33    1
    39    14    34    1
    40    16    35    1
    41    18    36    1
    42    20    37    1
    43    21    38    1
