@<TRIPOS>MOLECULE
*****
 42 45 0 0 0
SMALL
GASTEIGER

@<TRIPOS>ATOM
      1 C          -4.3156    1.4617    2.2869 C.ar    1  UNL1       -0.0433
      2 C          -5.0966    0.3221    2.2966 C.ar    1  UNL1        0.0276
      3 N          -4.6725   -0.8756    1.8471 N.ar    1  UNL1       -0.2629
      4 C          -3.4086   -0.9339    1.3579 C.ar    1  UNL1        0.0322
      5 C          -2.5332    0.1468    1.2829 C.ar    1  UNL1       -0.0122
      6 C          -1.0963    0.0573    0.7650 C.3     1  UNL1        0.0374
      7 C          -0.6727   -1.3044    0.1663 C.3     1  UNL1       -0.0331
      8 C          -1.2079   -1.5316   -1.2447 C.3     1  UNL1       -0.0502
      9 C          -0.8184   -0.3702   -2.1466 C.3     1  UNL1       -0.0401
     10 C          -1.2372    0.9676   -1.5413 C.3     1  UNL1       -0.0002
     11 N          -0.8189    1.1663   -0.1600 N.3     1  UNL1       -0.2912
     12 C           0.3970    1.9393    0.0675 C.3     1  UNL1        0.0247
     13 C           1.7115    1.2778   -0.2771 C.ar    1  UNL1       -0.0297
     14 C           2.2616    1.4122   -1.5741 C.ar    1  UNL1       -0.0537
     15 C           3.4802    0.8134   -1.9098 C.ar    1  UNL1       -0.0158
     16 C           4.1303    0.0939   -0.9324 C.ar    1  UNL1        0.1662
     17 C           3.6131   -0.0355    0.3340 C.ar    1  UNL1        0.1665
     18 C           2.4150    0.5446    0.6940 C.ar    1  UNL1       -0.0117
     19 O           4.4097   -0.7800    1.1468 O.3     1  UNL1       -0.4526
     20 C           5.4873   -1.1057    0.2443 C.3     1  UNL1        0.2332
     21 O           5.3174   -0.5529   -1.0774 O.3     1  UNL1       -0.4526
     22 C          -3.0221    1.3666    1.7807 C.ar    1  UNL1       -0.0542
     23 H          -4.7006    2.4021    2.6636 H       1  UNL1        0.0633
     24 H          -6.1125    0.3413    2.6795 H       1  UNL1        0.0829
     25 H          -3.1329   -1.9282    1.0224 H       1  UNL1        0.0833
     26 H          -0.4940    0.1841    1.6762 H       1  UNL1        0.0513
     27 H           0.4216   -1.3511    0.1191 H       1  UNL1        0.0284
     28 H          -0.9647   -2.1354    0.8179 H       1  UNL1        0.0284
     29 H          -0.8033   -2.4664   -1.6488 H       1  UNL1        0.0266
     30 H          -2.2979   -1.6376   -1.2323 H       1  UNL1        0.0266
     31 H          -1.2923   -0.4933   -3.1273 H       1  UNL1        0.0278
     32 H           0.2622   -0.3919   -2.3184 H       1  UNL1        0.0278
     33 H          -0.8906    1.7874   -2.1821 H       1  UNL1        0.0427
     34 H          -2.3330    1.0286   -1.5741 H       1  UNL1        0.0427
     35 H           0.3285    2.8875   -0.4833 H       1  UNL1        0.0476
     36 H           0.4302    2.2589    1.1182 H       1  UNL1        0.0476
     37 H           1.7308    1.9868   -2.3310 H       1  UNL1        0.0622
     38 H           3.9002    0.9112   -2.9043 H       1  UNL1        0.0655
     39 H           2.0349    0.4284    1.7031 H       1  UNL1        0.0658
     40 H           5.5574   -2.1965    0.1616 H       1  UNL1        0.1166
     41 H           6.4246   -0.7245    0.6658 H       1  UNL1        0.1166
     42 H          -2.3917    2.2529    1.7679 H       1  UNL1        0.0622
@<TRIPOS>BOND
     1     1     2   ar
     2     2     3   ar
     3     3     4   ar
     4     4     5   ar
     5     5     6    1
     6     6     7    1
     7     7     8    1
     8     8     9    1
     9     9    10    1
    10    10    11    1
    11    11    12    1
    12    12    13    1
    13    13    14   ar
    14    14    15   ar
    15    15    16   ar
    16    16    17   ar
    17    17    18   ar
    18    17    19    1
    19    19    20    1
    20    20    21    1
    21     5    22   ar
    22    22     1   ar
    23    11     6    1
    24    18    13   ar
    25    21    16    1
    26     1    23    1
    27     2    24    1
    28     4    25    1
    29     6    26    1
    30     7    27    1
    31     7    28    1
    32     8    29    1
    33     8    30    1
    34     9    31    1
    35     9    32    1
    36    10    33    1
    37    10    34    1
    38    12    35    1
    39    12    36    1
    40    14    37    1
    41    15    38    1
    42    18    39    1
    43    20    40    1
    44    20    41    1
    45    22    42    1
