@<TRIPOS>MOLECULE
*****
 28 31 0 0 0
SMALL
GASTEIGER

@<TRIPOS>ATOM
      1 C           5.0570    0.4818   -0.5878 C.ar    1  UNL1       -0.0398
      2 C           5.6804   -0.3082    0.3525 C.ar    1  UNL1        0.0500
      3 N           4.9845   -1.0285    1.2441 N.ar    1  UNL1       -0.1571
      4 N           3.6072   -0.9827    1.2262 N.ar    1  UNL1       -0.1477
      5 C           2.9351   -0.2235    0.3246 C.ar    1  UNL1        0.1115
      6 C           1.4488   -0.2542    0.4022 C.ar    1  UNL1        0.0929
      7 C           0.6229    0.4760   -0.4599 C.ar    1  UNL1       -0.0102
      8 C          -0.7571    0.3498   -0.2694 C.ar    1  UNL1        0.0511
      9 N          -1.8100    0.9271   -0.9402 N.ar    1  UNL1       -0.3540
     10 C          -3.0100    0.5164   -0.4099 C.ar    1  UNL1        0.0504
     11 C          -4.3173    0.8403   -0.7668 C.ar    1  UNL1       -0.0196
     12 C          -5.3005    0.2312   -0.0020 C.ar    1  UNL1        0.0295
     13 N          -5.0697   -0.6192    1.0220 N.ar    1  UNL1       -0.2625
     14 C          -3.7883   -0.9189    1.3502 C.ar    1  UNL1        0.0373
     15 C          -2.7205   -0.3561    0.6392 C.ar    1  UNL1        0.0269
     16 C          -1.2974   -0.4594    0.7257 C.ar    1  UNL1        0.0270
     17 C          -0.4161   -1.1599    1.5504 C.ar    1  UNL1        0.0381
     18 N           0.9239   -1.0469    1.3769 N.ar    1  UNL1       -0.2526
     19 C           3.6630    0.5241   -0.6010 C.ar    1  UNL1       -0.0310
     20 H           5.6397    1.0560   -1.2993 H       1  UNL1        0.0634
     21 H           6.7585   -0.3885    0.4204 H       1  UNL1        0.0848
     22 H           1.0092    1.1135   -1.2428 H       1  UNL1        0.0660
     23 H          -1.7174    1.5661   -1.7168 H       1  UNL1        0.1659
     24 H          -4.5584    1.5149   -1.5775 H       1  UNL1        0.0653
     25 H          -6.3516    0.4220   -0.2046 H       1  UNL1        0.0830
     26 H          -3.6532   -1.6054    2.1783 H       1  UNL1        0.0836
     27 H          -0.7394   -1.8143    2.3520 H       1  UNL1        0.0836
     28 H           3.1766    1.1465   -1.3419 H       1  UNL1        0.0640
@<TRIPOS>BOND
     1     1     2   ar
     2     2     3   ar
     3     3     4   ar
     4     4     5   ar
     5     5     6    1
     6     6     7   ar
     7     7     8   ar
     8     8     9   ar
     9     9    10   ar
    10    10    11   ar
    11    11    12   ar
    12    12    13   ar
    13    13    14   ar
    14    14    15   ar
    15    15    16   ar
    16    16    17   ar
    17    17    18   ar
    18     5    19   ar
    19    19     1   ar
    20    18     6   ar
    21    16     8   ar
    22    15    10   ar
    23     1    20    1
    24     2    21    1
    25     7    22    1
    26     9    23    1
    27    11    24    1
    28    12    25    1
    29    14    26    1
    30    17    27    1
    31    19    28    1
