@<TRIPOS>MOLECULE
*****
 23 25 0 0 0
SMALL
GASTEIGER

@<TRIPOS>ATOM
      1 C          -3.9468   -0.4831   -0.4951 C.ar    1  UNL1       -0.0398
      2 C          -4.4364    0.6728    0.0785 C.ar    1  UNL1        0.0500
      3 N          -3.6277    1.6178    0.5906 N.ar    1  UNL1       -0.1571
      4 N          -2.2711    1.4361    0.5462 N.ar    1  UNL1       -0.1478
      5 C          -1.7482    0.3183   -0.0068 C.ar    1  UNL1        0.1094
      6 C          -0.2865    0.2526    0.0118 C.ar    1  UNL1        0.0678
      7 C           0.6322    1.1649    0.5112 C.ar    1  UNL1       -0.0257
      8 C           1.9437    0.6620    0.3008 C.ar    1  UNL1        0.0184
      9 C           3.2325    1.1280    0.5851 C.ar    1  UNL1        0.0367
     10 N           4.3205    0.3911    0.2471 N.ar    1  UNL1       -0.2625
     11 C           4.1365   -0.7982   -0.3676 C.ar    1  UNL1        0.0295
     12 C           2.9038   -1.3460   -0.6917 C.ar    1  UNL1       -0.0196
     13 C           1.8041   -0.5690   -0.3337 C.ar    1  UNL1        0.0498
     14 N           0.4562   -0.7924   -0.4961 N.ar    1  UNL1       -0.3528
     15 C          -2.5677   -0.6661   -0.5394 C.ar    1  UNL1       -0.0310
     16 H          -4.6234   -1.2272   -0.8998 H       1  UNL1        0.0634
     17 H          -5.4983    0.8786    0.1458 H       1  UNL1        0.0848
     18 H           0.3755    2.1061    0.9833 H       1  UNL1        0.0646
     19 H           3.4232    2.0751    1.0763 H       1  UNL1        0.0836
     20 H           5.0538   -1.3304   -0.6070 H       1  UNL1        0.0830
     21 H           2.8147   -2.3044   -1.1851 H       1  UNL1        0.0653
     22 H           0.0772   -1.6193   -0.9325 H       1  UNL1        0.1660
     23 H          -2.1680   -1.5673   -0.9860 H       1  UNL1        0.0640
@<TRIPOS>BOND
     1     1     2   ar
     2     2     3   ar
     3     3     4   ar
     4     4     5   ar
     5     5     6    1
     6     6     7   ar
     7     7     8   ar
     8     8     9   ar
     9     9    10   ar
    10    10    11   ar
    11    11    12   ar
    12    12    13   ar
    13    13    14   ar
    14     5    15   ar
    15    15     1   ar
    16    14     6   ar
    17    13     8   ar
    18     1    16    1
    19     2    17    1
    20     7    18    1
    21     9    19    1
    22    11    20    1
    23    12    21    1
    24    14    22    1
    25    15    23    1
