@<TRIPOS>MOLECULE
*****
 28 30 0 0 0
SMALL
GASTEIGER

@<TRIPOS>ATOM
      1 C          -5.1332    0.2396   -0.7756 C.ar    1  UNL1       -0.0398
      2 C          -5.6285   -0.3514    0.3657 C.ar    1  UNL1        0.0500
      3 N          -4.8208   -0.8152    1.3317 N.ar    1  UNL1       -0.1571
      4 N          -3.4588   -0.7005    1.1845 N.ar    1  UNL1       -0.1493
      5 C          -2.9114   -0.1285    0.0836 C.ar    1  UNL1        0.0933
      6 C          -1.4284   -0.0663    0.0476 C.ar    1  UNL1        0.0022
      7 C          -0.7066    0.4936   -1.0189 C.ar    1  UNL1       -0.0519
      8 C           0.7011    0.5392   -1.0268 C.ar    1  UNL1       -0.0519
      9 C           1.4678    0.0273    0.0321 C.ar    1  UNL1        0.0019
     10 C           2.9519    0.0593    0.0557 C.ar    1  UNL1        0.0890
     11 C           3.7504    0.5945   -0.9574 C.ar    1  UNL1        0.0535
     12 N           5.1101    0.6177   -0.9235 N.ar    1  UNL1       -0.2596
     13 C           5.6652    0.0771    0.1794 C.ar    1  UNL1        0.0457
     14 C           4.9008   -0.4590    1.1965 C.ar    1  UNL1        0.0464
     15 N           3.5480   -0.4788    1.1563 N.ar    1  UNL1       -0.2520
     16 C           0.7443   -0.5325    1.0983 C.ar    1  UNL1       -0.0519
     17 C          -0.6593   -0.5781    1.1062 C.ar    1  UNL1       -0.0519
     18 C          -3.7512    0.3523   -0.9178 C.ar    1  UNL1       -0.0325
     19 H          -5.8044    0.6075   -1.5434 H       1  UNL1        0.0634
     20 H          -6.6907   -0.4715    0.5413 H       1  UNL1        0.0848
     21 H          -1.2150    0.9145   -1.8821 H       1  UNL1        0.0624
     22 H           1.1702    0.9922   -1.8961 H       1  UNL1        0.0624
     23 H           3.3328    1.0350   -1.8543 H       1  UNL1        0.0851
     24 H           6.7479    0.0862    0.2250 H       1  UNL1        0.0845
     25 H           5.3551   -0.8919    2.0803 H       1  UNL1        0.0845
     26 H           1.2713   -0.9502    1.9562 H       1  UNL1        0.0624
     27 H          -1.1456   -1.0294    1.9713 H       1  UNL1        0.0624
     28 H          -3.3630    0.8172   -1.8156 H       1  UNL1        0.0640
@<TRIPOS>BOND
     1     1     2   ar
     2     2     3   ar
     3     3     4   ar
     4     4     5   ar
     5     5     6    1
     6     6     7   ar
     7     7     8   ar
     8     8     9   ar
     9     9    10    1
    10    10    11   ar
    11    11    12   ar
    12    12    13   ar
    13    13    14   ar
    14    14    15   ar
    15     9    16   ar
    16    16    17   ar
    17     5    18   ar
    18    18     1   ar
    19    17     6   ar
    20    15    10   ar
    21     1    19    1
    22     2    20    1
    23     7    21    1
    24     8    22    1
    25    11    23    1
    26    13    24    1
    27    14    25    1
    28    16    26    1
    29    17    27    1
    30    18    28    1
