@<TRIPOS>MOLECULE
*****
 22 24 0 0 0
SMALL
GASTEIGER

@<TRIPOS>ATOM
      1 C          -3.7094    0.3917   -0.2518 C.ar    1  UNL1       -0.0398
      2 C          -4.0966   -0.0093    1.0077 C.ar    1  UNL1        0.0500
      3 N          -3.2058   -0.3983    1.9332 N.ar    1  UNL1       -0.1571
      4 N          -1.8671   -0.3989    1.6217 N.ar    1  UNL1       -0.1493
      5 C          -1.4248   -0.0149    0.3988 C.ar    1  UNL1        0.0934
      6 C           0.0464   -0.0620    0.1918 C.ar    1  UNL1        0.0043
      7 C           0.9039   -0.4889    1.2357 C.ar    1  UNL1       -0.0504
      8 C           2.3018   -0.5594    1.1140 C.ar    1  UNL1       -0.0341
      9 C           2.8272   -0.1799   -0.1153 C.ar    1  UNL1        0.0858
     10 N           4.0960   -0.1099   -0.6163 N.ar    1  UNL1       -0.2571
     11 N           4.1092    0.3250   -1.8873 N.ar    1  UNL1       -0.0673
     12 N           2.8499    0.5483   -2.2436 N.ar    1  UNL1       -0.1296
     13 C           2.0465    0.2468   -1.1764 C.ar    1  UNL1        0.1131
     14 C           0.6506    0.3087   -1.0304 C.ar    1  UNL1       -0.0232
     15 C          -2.3502    0.3884   -0.5603 C.ar    1  UNL1       -0.0325
     16 H          -4.4461    0.7021   -0.9842 H       1  UNL1        0.0634
     17 H          -5.1354   -0.0311    1.3143 H       1  UNL1        0.0848
     18 H           0.4746   -0.7837    2.1956 H       1  UNL1        0.0625
     19 H           2.9228   -0.8921    1.9386 H       1  UNL1        0.0639
     20 H           4.9754   -0.3344   -0.1677 H       1  UNL1        0.1907
     21 H           0.0792    0.6478   -1.8852 H       1  UNL1        0.0647
     22 H          -2.0479    0.7042   -1.5515 H       1  UNL1        0.0640
@<TRIPOS>BOND
     1     1     2   ar
     2     2     3   ar
     3     3     4   ar
     4     4     5   ar
     5     5     6    1
     6     6     7   ar
     7     7     8   ar
     8     8     9   ar
     9     9    10   ar
    10    10    11   ar
    11    11    12   ar
    12    12    13   ar
    13    13    14   ar
    14     5    15   ar
    15    15     1   ar
    16    14     6   ar
    17    13     9   ar
    18     1    16    1
    19     2    17    1
    20     7    18    1
    21     8    19    1
    22    10    20    1
    23    14    21    1
    24    15    22    1
