@<TRIPOS>MOLECULE
*****
 48 55 0 0 0
SMALL
GASTEIGER

@<TRIPOS>ATOM
      1 SI         -4.2778    2.1815   -3.5789 Si      1  UNL1        0.0000
      2 C          -5.6560    1.6889   -2.4202 C.2     1  UNL1        0.0000
      3 C          -5.1654    1.0478   -1.3435 C.ar    1  UNL1        0.0000
      4 C          -5.9659    0.5366   -0.2622 C.ar    1  UNL1        0.0000
      5 C          -5.3531   -0.0870    0.7576 C.ar    1  UNL1        0.0000
      6 C          -3.8848   -0.2881    0.8484 C.ar    1  UNL1        0.0000
      7 C          -3.0678    0.1829   -0.1613 C.ar    1  UNL1        0.0000
      8 C          -1.6398   -0.0414   -0.0186 C.ar    1  UNL1        0.0000
      9 O          -0.6678    0.3548   -0.9171 O.2     1  UNL1        0.0000
     10 C           0.5259   -0.0522   -0.3996 C.ar    1  UNL1        0.0000
     11 C           1.8508    0.0656   -0.8566 C.ar    1  UNL1        0.0000
     12 C           2.7034   -0.5227    0.0625 C.ar    1  UNL1        0.0000
     13 S           1.8730   -1.2009    1.4254 S.2     1  UNL1        0.0000
     14 C           0.3518   -0.6869    0.7814 C.ar    1  UNL1        0.0000
     15 C          -1.0303   -0.6896    1.0450 C.ar    1  UNL1        0.0000
     16 C          -1.7990   -1.1988    2.1139 C.ar    1  UNL1        0.0000
     17 C          -1.3696   -1.8466    3.2123 C.2     1  UNL1        0.0000
     18 SI         -2.7953   -2.3056    4.3145 Si      1  UNL1        0.0000
     19 C          -3.9436   -1.5037    3.0704 C.2     1  UNL1        0.0000
     20 C          -3.2701   -0.9928    2.0149 C.ar    1  UNL1        0.0000
     21 C           4.1532   -0.6264    0.0054 C.ar    1  UNL1        0.0000
     22 C           4.8886   -1.8361    0.1016 C.ar    1  UNL1        0.0000
     23 C           6.3242   -1.9171    0.0207 C.ar    1  UNL1        0.0000
     24 C           7.1747   -0.8029   -0.1638 C.ar    1  UNL1        0.0000
     25 C           6.4339    0.3683   -0.2526 C.ar    1  UNL1        0.0000
     26 C           6.9454    1.6287   -0.4202 C.ar    1  UNL1        0.0000
     27 N           5.8732    2.4954   -0.4382 N.ar    1  UNL1        0.0000
     28 C           4.6914    1.7993   -0.2842 C.ar    1  UNL1        0.0000
     29 C           5.0100    0.4662   -0.1766 C.ar    1  UNL1        0.0000
     30 C          -3.6955    0.8763   -1.3071 C.ar    1  UNL1        0.0000
     31 C          -3.0729    1.4021   -2.3840 C.2     1  UNL1        0.0000
     32 H          -4.1212    3.6532   -3.6730 H       1  UNL1        0.0000
     33 H          -4.3481    1.4630   -4.8743 H       1  UNL1        0.0000
     34 H          -6.6876    1.9142   -2.6378 H       1  UNL1        0.0000
     35 H          -7.0427    0.6593   -0.2839 H       1  UNL1        0.0000
     36 H          -5.9686   -0.4673    1.5651 H       1  UNL1        0.0000
     37 H           2.1599    0.5381   -1.7787 H       1  UNL1        0.0000
     38 H          -0.3540   -2.0945    3.4748 H       1  UNL1        0.0000
     39 H          -2.7791   -1.5802    5.6070 H       1  UNL1        0.0000
     40 H          -3.0041   -3.7705    4.4029 H       1  UNL1        0.0000
     41 H          -5.0039   -1.4972    3.2573 H       1  UNL1        0.0000
     42 H           4.3429   -2.7709    0.2361 H       1  UNL1        0.0000
     43 H           6.7811   -2.9037    0.1066 H       1  UNL1        0.0000
     44 H           8.2510   -0.8757   -0.2205 H       1  UNL1        0.0000
     45 H           7.9567    1.9982   -0.5210 H       1  UNL1        0.0000
     46 H           5.9425    3.4996   -0.5392 H       1  UNL1        0.0000
     47 H           3.7481    2.3277   -0.2595 H       1  UNL1        0.0000
     48 H          -2.0177    1.4109   -2.6005 H       1  UNL1        0.0000
@<TRIPOS>BOND
     1     1     2    1
     2     2     3    2
     3     3     4   ar
     4     4     5   ar
     5     5     6   ar
     6     6     7   ar
     7     7     8   ar
     8     8     9   ar
     9     9    10   ar
    10    10    11   ar
    11    11    12   ar
    12    12    13   ar
    13    13    14   ar
    14    14    15   ar
    15    15    16   ar
    16    16    17    2
    17    17    18    1
    18    18    19    1
    19    19    20    2
    20    12    21    1
    21    21    22   ar
    22    22    23   ar
    23    23    24   ar
    24    24    25   ar
    25    25    26   ar
    26    26    27   ar
    27    27    28   ar
    28    28    29   ar
    29     7    30   ar
    30    30    31    2
    31    31     1    1
    32    30     3   ar
    33    20     6   ar
    34    29    21   ar
    35    15     8   ar
    36    20    16   ar
    37    29    25   ar
    38    14    10   ar
    39     1    32    1
    40     1    33    1
    41     2    34    1
    42     4    35    1
    43     5    36    1
    44    11    37    1
    45    17    38    1
    46    18    39    1
    47    18    40    1
    48    19    41    1
    49    22    42    1
    50    23    43    1
    51    24    44    1
    52    26    45    1
    53    27    46    1
    54    28    47    1
    55    31    48    1
