@<TRIPOS>MOLECULE
*****
 29 32 0 0 0
SMALL
GASTEIGER

@<TRIPOS>ATOM
      1 C          -4.9643    1.4480    0.2984 C.ar    1  UNL1       -0.0398
      2 C          -5.6996    0.3623   -0.1227 C.ar    1  UNL1        0.0500
      3 N          -5.1173   -0.7927   -0.4794 N.ar    1  UNL1       -0.1571
      4 N          -3.7477   -0.9020   -0.4254 N.ar    1  UNL1       -0.1493
      5 C          -2.9694    0.1317   -0.0193 C.ar    1  UNL1        0.0934
      6 C          -1.5026   -0.1170   -0.0065 C.ar    1  UNL1        0.0041
      7 C          -0.9907   -1.3703   -0.4017 C.ar    1  UNL1       -0.0518
      8 C           0.3826   -1.6650   -0.4110 C.ar    1  UNL1       -0.0513
      9 C           1.2999   -0.6792   -0.0120 C.ar    1  UNL1        0.0090
     10 C           0.8028    0.5634    0.3805 C.ar    1  UNL1        0.0492
     11 C          -0.5703    0.8659    0.3925 C.ar    1  UNL1       -0.0285
     12 N           1.8870    1.3416    0.7196 N.ar    1  UNL1       -0.3390
     13 C           3.0481    0.6420    0.5574 C.ar    1  UNL1        0.1391
     14 N           4.2741    1.1372    0.8090 N.ar    1  UNL1       -0.2375
     15 C           5.2595    0.2418    0.5680 C.ar    1  UNL1        0.0299
     16 C           5.0809   -1.0579    0.1108 C.ar    1  UNL1       -0.0429
     17 C           3.7861   -1.5180   -0.1333 C.ar    1  UNL1       -0.0490
     18 C           2.7231   -0.6286    0.1004 C.ar    1  UNL1        0.0264
     19 C          -3.5763    1.3294    0.3505 C.ar    1  UNL1       -0.0325
     20 H          -5.4555    2.3719    0.5821 H       1  UNL1        0.0634
     21 H          -6.7807    0.3851   -0.1871 H       1  UNL1        0.0848
     22 H          -1.6724   -2.1608   -0.7181 H       1  UNL1        0.0624
     23 H           0.7237   -2.6473   -0.7247 H       1  UNL1        0.0624
     24 H          -0.8828    1.8541    0.7101 H       1  UNL1        0.0645
     25 H           1.8554    2.2952    1.0441 H       1  UNL1        0.1673
     26 H           6.2623    0.6154    0.7630 H       1  UNL1        0.0830
     27 H           5.9365   -1.7040   -0.0534 H       1  UNL1        0.0633
     28 H           3.6079   -2.5264   -0.4906 H       1  UNL1        0.0625
     29 H          -3.0003    2.1844    0.6819 H       1  UNL1        0.0640
@<TRIPOS>BOND
     1     1     2   ar
     2     2     3   ar
     3     3     4   ar
     4     4     5   ar
     5     5     6    1
     6     6     7   ar
     7     7     8   ar
     8     8     9   ar
     9     9    10   ar
    10    10    11   ar
    11    10    12   ar
    12    12    13   ar
    13    13    14   ar
    14    14    15   ar
    15    15    16   ar
    16    16    17   ar
    17    17    18   ar
    18     5    19   ar
    19    19     1   ar
    20    11     6   ar
    21    18    13   ar
    22    18     9   ar
    23     1    20    1
    24     2    21    1
    25     7    22    1
    26     8    23    1
    27    11    24    1
    28    12    25    1
    29    15    26    1
    30    16    27    1
    31    17    28    1
    32    19    29    1
