@<TRIPOS>MOLECULE
*****
 29 32 0 0 0
SMALL
GASTEIGER

@<TRIPOS>ATOM
      1 C          -5.1586    1.0499   -0.8542 C.ar    1  UNL1       -0.0398
      2 C          -5.8371    0.6014    0.2574 C.ar    1  UNL1        0.0500
      3 N          -5.2016    0.0375    1.2962 N.ar    1  UNL1       -0.1571
      4 N          -3.8344   -0.0994    1.2562 N.ar    1  UNL1       -0.1493
      5 C          -3.1111    0.3227    0.1895 C.ar    1  UNL1        0.0933
      6 C          -1.6415    0.1157    0.2730 C.ar    1  UNL1        0.0032
      7 C          -1.0686   -0.4849    1.4046 C.ar    1  UNL1       -0.0519
      8 C           0.3126   -0.6992    1.5246 C.ar    1  UNL1       -0.0523
      9 C           1.1946   -0.3104    0.4903 C.ar    1  UNL1       -0.0031
     10 C           0.6349    0.2860   -0.6356 C.ar    1  UNL1        0.0211
     11 C          -0.7590    0.5015   -0.7552 C.ar    1  UNL1       -0.0382
     12 S           1.8356    0.6959   -1.7914 S.2     1  UNL1       -0.0882
     13 C           3.1131    0.0908   -0.8202 C.ar    1  UNL1        0.0205
     14 C           4.4862    0.0851   -1.1391 C.ar    1  UNL1       -0.0474
     15 C           5.3936   -0.4513   -0.2239 C.ar    1  UNL1       -0.0607
     16 C           4.9502   -0.9715    0.9825 C.ar    1  UNL1       -0.0611
     17 C           3.5872   -0.9632    1.2936 C.ar    1  UNL1       -0.0529
     18 C           2.6373   -0.4254    0.3856 C.ar    1  UNL1       -0.0031
     19 C          -3.7724    0.9076   -0.8875 C.ar    1  UNL1       -0.0325
     20 H          -5.6922    1.5025   -1.6823 H       1  UNL1        0.0634
     21 H          -6.9135    0.6805    0.3495 H       1  UNL1        0.0848
     22 H          -1.7008   -0.8051    2.2337 H       1  UNL1        0.0624
     23 H           0.6989   -1.1695    2.4256 H       1  UNL1        0.0624
     24 H          -1.1214    0.9723   -1.6631 H       1  UNL1        0.0635
     25 H           4.8359    0.4922   -2.0839 H       1  UNL1        0.0629
     26 H           6.4548   -0.4600   -0.4612 H       1  UNL1        0.0618
     27 H           5.6626   -1.3877    1.6906 H       1  UNL1        0.0618
     28 H           3.2560   -1.3750    2.2437 H       1  UNL1        0.0624
     29 H          -3.2412    1.2610   -1.7627 H       1  UNL1        0.0640
@<TRIPOS>BOND
     1     1     2   ar
     2     2     3   ar
     3     3     4   ar
     4     4     5   ar
     5     5     6    1
     6     6     7   ar
     7     7     8   ar
     8     8     9   ar
     9     9    10   ar
    10    10    11   ar
    11    10    12   ar
    12    12    13   ar
    13    13    14   ar
    14    14    15   ar
    15    15    16   ar
    16    16    17   ar
    17    17    18   ar
    18     5    19   ar
    19    19     1   ar
    20    11     6   ar
    21    18    13   ar
    22    18     9   ar
    23     1    20    1
    24     2    21    1
    25     7    22    1
    26     8    23    1
    27    11    24    1
    28    14    25    1
    29    15    26    1
    30    16    27    1
    31    17    28    1
    32    19    29    1
