@<TRIPOS>MOLECULE
*****
 24 26 0 0 0
SMALL
GASTEIGER

@<TRIPOS>ATOM
      1 C           4.2023   -0.6861   -0.1177 C.ar    1  UNL1       -0.0398
      2 C           4.5429    0.5985    0.2440 C.ar    1  UNL1        0.0500
      3 N           3.6172    1.5536    0.4213 N.ar    1  UNL1       -0.1571
      4 N           2.2894    1.2486    0.2384 N.ar    1  UNL1       -0.1493
      5 C           1.8926    0.0028   -0.1176 C.ar    1  UNL1        0.0934
      6 C           0.4303   -0.1941   -0.2828 C.ar    1  UNL1        0.0042
      7 C          -0.1406   -1.4226   -0.6475 C.ar    1  UNL1       -0.0504
      8 C          -1.5266   -1.5665   -0.7929 C.ar    1  UNL1       -0.0336
      9 C          -2.3910   -0.5051   -0.5834 C.ar    1  UNL1        0.0892
     10 N          -3.7183   -0.6871   -0.7342 N.ar    1  UNL1       -0.2519
     11 C          -4.4984    0.3925   -0.5134 C.ar    1  UNL1        0.0464
     12 C          -3.9747    1.6164   -0.1535 C.ar    1  UNL1        0.0464
     13 N          -2.6481    1.8134    0.0011 N.ar    1  UNL1       -0.2519
     14 C          -1.8505    0.7473   -0.2148 C.ar    1  UNL1        0.0898
     15 C          -0.4701    0.8731   -0.0746 C.ar    1  UNL1       -0.0250
     16 C           2.8539   -0.9879   -0.3014 C.ar    1  UNL1       -0.0325
     17 H           4.9667   -1.4424   -0.2557 H       1  UNL1        0.0634
     18 H           5.5705    0.9022    0.4032 H       1  UNL1        0.0848
     19 H           0.4689   -2.3032   -0.8297 H       1  UNL1        0.0625
     20 H          -1.9401   -2.5316   -1.0767 H       1  UNL1        0.0640
     21 H          -5.5649    0.2437   -0.6352 H       1  UNL1        0.0845
     22 H          -4.6079    2.4782    0.0219 H       1  UNL1        0.0845
     23 H          -0.0915    1.8550    0.2109 H       1  UNL1        0.0646
     24 H           2.5881   -1.9986   -0.5859 H       1  UNL1        0.0640
@<TRIPOS>BOND
     1     1     2   ar
     2     2     3   ar
     3     3     4   ar
     4     4     5   ar
     5     5     6    1
     6     6     7   ar
     7     7     8   ar
     8     8     9   ar
     9     9    10   ar
    10    10    11   ar
    11    11    12   ar
    12    12    13   ar
    13    13    14   ar
    14    14    15   ar
    15     5    16   ar
    16    16     1   ar
    17    15     6   ar
    18    14     9   ar
    19     1    17    1
    20     2    18    1
    21     7    19    1
    22     8    20    1
    23    11    21    1
    24    12    22    1
    25    15    23    1
    26    16    24    1
