@<TRIPOS>MOLECULE
*****
 24 26 0 0 0
SMALL
GASTEIGER

@<TRIPOS>ATOM
      1 C          -4.0917   -0.8384   -0.3197 C.ar    1  UNL1       -0.0398
      2 C          -4.7503    0.2980    0.0955 C.ar    1  UNL1        0.0500
      3 N          -4.0889    1.3821    0.5307 N.ar    1  UNL1       -0.1571
      4 N          -2.7161    1.3653    0.5660 N.ar    1  UNL1       -0.1492
      5 C          -2.0135    0.2763    0.1702 C.ar    1  UNL1        0.0948
      6 C          -0.5436    0.3894    0.2582 C.ar    1  UNL1        0.0222
      7 C           0.0684    1.5545    0.7230 C.ar    1  UNL1        0.0376
      8 N           1.4074    1.7445    0.8364 N.ar    1  UNL1       -0.2528
      9 C           2.2075    0.7281    0.4714 C.ar    1  UNL1        0.0892
     10 C           3.5840    0.8609    0.5640 C.ar    1  UNL1       -0.0328
     11 C           4.4295   -0.1807    0.1907 C.ar    1  UNL1       -0.0415
     12 C           3.8530   -1.3464   -0.2732 C.ar    1  UNL1        0.0284
     13 N           2.5196   -1.5257   -0.3824 N.ar    1  UNL1       -0.2534
     14 C           1.7220   -0.5010   -0.0141 C.ar    1  UNL1        0.0898
     15 C           0.3424   -0.6373   -0.1082 C.ar    1  UNL1       -0.0235
     16 C          -2.6988   -0.8484   -0.2813 C.ar    1  UNL1       -0.0324
     17 H          -4.6461   -1.7029   -0.6676 H       1  UNL1        0.0634
     18 H          -5.8310    0.3746    0.0920 H       1  UNL1        0.0848
     19 H          -0.5203    2.4163    1.0352 H       1  UNL1        0.0836
     20 H           4.0014    1.7936    0.9339 H       1  UNL1        0.0640
     21 H           5.5065   -0.0797    0.2621 H       1  UNL1        0.0633
     22 H           4.4628   -2.1922   -0.5787 H       1  UNL1        0.0830
     23 H          -0.0233   -1.5885   -0.4836 H       1  UNL1        0.0646
     24 H          -2.1809   -1.7426   -0.6080 H       1  UNL1        0.0640
@<TRIPOS>BOND
     1     1     2   ar
     2     2     3   ar
     3     3     4   ar
     4     4     5   ar
     5     5     6    1
     6     6     7   ar
     7     7     8   ar
     8     8     9   ar
     9     9    10   ar
    10    10    11   ar
    11    11    12   ar
    12    12    13   ar
    13    13    14   ar
    14    14    15   ar
    15     5    16   ar
    16    16     1   ar
    17    15     6   ar
    18    14     9   ar
    19     1    17    1
    20     2    18    1
    21     7    19    1
    22    10    20    1
    23    11    21    1
    24    12    22    1
    25    15    23    1
    26    16    24    1
