@<TRIPOS>MOLECULE
*****
 24 26 0 0 0
SMALL
GASTEIGER

@<TRIPOS>ATOM
      1 C          -4.0178   -0.9180    0.2922 C.ar    1  UNL1       -0.0398
      2 C          -4.7092    0.2713    0.3629 C.ar    1  UNL1        0.0500
      3 N          -4.0800    1.4566    0.3841 N.ar    1  UNL1       -0.1571
      4 N          -2.7078    1.4931    0.3341 N.ar    1  UNL1       -0.1492
      5 C          -1.9739    0.3567    0.2638 C.ar    1  UNL1        0.0948
      6 C          -0.5085    0.5358    0.2158 C.ar    1  UNL1        0.0209
      7 C           0.0710    1.8035    0.2419 C.ar    1  UNL1        0.0392
      8 N           1.4037    2.0688    0.2021 N.ar    1  UNL1       -0.2350
      9 C           2.2622    1.0554    0.1318 C.ar    1  UNL1        0.1597
     10 N           3.5682    1.3285    0.0932 N.ar    1  UNL1       -0.2357
     11 C           4.4494    0.3079    0.0218 C.ar    1  UNL1        0.0300
     12 C           4.0848   -1.0218   -0.0147 C.ar    1  UNL1       -0.0429
     13 C           2.7307   -1.3161    0.0248 C.ar    1  UNL1       -0.0496
     14 C           1.7969   -0.2710    0.0992 C.ar    1  UNL1        0.0198
     15 C           0.4103   -0.5169    0.1417 C.ar    1  UNL1       -0.0403
     16 C          -2.6257   -0.8735    0.2418 C.ar    1  UNL1       -0.0324
     17 H          -4.5470   -1.8643    0.2763 H       1  UNL1        0.0634
     18 H          -5.7911    0.3108    0.4049 H       1  UNL1        0.0848
     19 H          -0.5418    2.7026    0.2987 H       1  UNL1        0.0837
     20 H           5.4941    0.6054   -0.0061 H       1  UNL1        0.0830
     21 H           4.8332   -1.8038   -0.0722 H       1  UNL1        0.0633
     22 H           2.4082   -2.3534   -0.0022 H       1  UNL1        0.0625
     23 H           0.0726   -1.5486    0.1155 H       1  UNL1        0.0632
     24 H          -2.0826   -1.8092    0.1862 H       1  UNL1        0.0640
@<TRIPOS>BOND
     1     1     2   ar
     2     2     3   ar
     3     3     4   ar
     4     4     5   ar
     5     5     6    1
     6     6     7   ar
     7     7     8   ar
     8     8     9   ar
     9     9    10   ar
    10    10    11   ar
    11    11    12   ar
    12    12    13   ar
    13    13    14   ar
    14    14    15   ar
    15     5    16   ar
    16    16     1   ar
    17    15     6   ar
    18    14     9   ar
    19     1    17    1
    20     2    18    1
    21     7    19    1
    22    11    20    1
    23    12    21    1
    24    13    22    1
    25    15    23    1
    26    16    24    1
