@<TRIPOS>MOLECULE
*****
 22 24 0 0 0
SMALL
GASTEIGER

@<TRIPOS>ATOM
      1 C           3.7846    0.2706    0.9287 C.ar    1  UNL1       -0.0398
      2 C           4.4713    0.4344   -0.2554 C.ar    1  UNL1        0.0500
      3 N           3.8465    0.4776   -1.4463 N.ar    1  UNL1       -0.1571
      4 N           2.4819    0.3558   -1.4962 N.ar    1  UNL1       -0.1477
      5 C           1.7581    0.1929   -0.3615 C.ar    1  UNL1        0.1130
      6 C           0.3002    0.0715   -0.5170 C.ar    1  UNL1        0.1114
      7 C          -0.3335    0.1176   -1.7511 C.ar    1  UNL1        0.0576
      8 N          -1.6754    0.0065   -1.9025 N.ar    1  UNL1       -0.2309
      9 C          -2.3976   -0.1544   -0.7892 C.ar    1  UNL1        0.1977
     10 N          -3.7280   -0.2674   -0.9056 N.ar    1  UNL1       -0.2316
     11 C          -4.4295   -0.4287    0.2342 C.ar    1  UNL1        0.0482
     12 C          -3.8182   -0.4768    1.4673 C.ar    1  UNL1        0.0482
     13 N          -2.4815   -0.3654    1.6094 N.ar    1  UNL1       -0.2316
     14 C          -1.7639   -0.2043    0.4898 C.ar    1  UNL1        0.1983
     15 N          -0.4351   -0.0922    0.6138 N.ar    1  UNL1       -0.2215
     16 C           2.4001    0.1476    0.8731 C.ar    1  UNL1       -0.0309
     17 H           4.3096    0.2388    1.8767 H       1  UNL1        0.0634
     18 H           5.5498    0.5365   -0.2868 H       1  UNL1        0.0848
     19 H           0.2211    0.2472   -2.6767 H       1  UNL1        0.0853
     20 H          -5.5045   -0.5186    0.1244 H       1  UNL1        0.0846
     21 H          -4.3866   -0.6067    2.3816 H       1  UNL1        0.0846
     22 H           1.8305    0.0173    1.7894 H       1  UNL1        0.0640
@<TRIPOS>BOND
     1     1     2   ar
     2     2     3   ar
     3     3     4   ar
     4     4     5   ar
     5     5     6    1
     6     6     7   ar
     7     7     8   ar
     8     8     9   ar
     9     9    10   ar
    10    10    11   ar
    11    11    12   ar
    12    12    13   ar
    13    13    14   ar
    14    14    15   ar
    15     5    16   ar
    16    16     1   ar
    17    15     6   ar
    18    14     9   ar
    19     1    17    1
    20     2    18    1
    21     7    19    1
    22    11    20    1
    23    12    21    1
    24    16    22    1
