@<TRIPOS>MOLECULE
*****
 22 24 0 0 0
SMALL
GASTEIGER

@<TRIPOS>ATOM
      1 C           4.1046   -0.2175    0.7255 C.ar    1  UNL1       -0.0397
      2 C           4.5673    0.0217   -0.5533 C.ar    1  UNL1        0.0500
      3 N           3.7373    0.2385   -1.5921 N.ar    1  UNL1       -0.1570
      4 N           2.3828    0.2241   -1.3869 N.ar    1  UNL1       -0.1445
      5 C           1.8882   -0.0067   -0.1481 C.ar    1  UNL1        0.1478
      6 C           0.4377   -0.0088    0.0030 C.ar    1  UNL1        0.2488
      7 N          -0.2836   -0.2074    1.0974 N.ar    1  UNL1       -0.2076
      8 C          -1.5792   -0.0979    0.6581 C.ar    1  UNL1        0.1099
      9 C          -2.7970   -0.2076    1.3415 C.ar    1  UNL1       -0.0326
     10 C          -3.9832   -0.0434    0.6091 C.ar    1  UNL1       -0.0595
     11 C          -3.9547    0.2226   -0.7663 C.ar    1  UNL1       -0.0582
     12 C          -2.7448    0.3348   -1.4624 C.ar    1  UNL1       -0.0171
     13 C          -1.5952    0.1658   -0.7011 C.ar    1  UNL1        0.1558
     14 O          -0.3036    0.2248   -1.1307 O.2     1  UNL1       -0.4340
     15 C           2.7300   -0.2320    0.9331 C.ar    1  UNL1       -0.0278
     16 H           4.7956   -0.3889    1.5431 H       1  UNL1        0.0634
     17 H           5.6255    0.0471   -0.7871 H       1  UNL1        0.0848
     18 H          -2.8163   -0.4135    2.4057 H       1  UNL1        0.0640
     19 H          -4.9407   -0.1245    1.1201 H       1  UNL1        0.0618
     20 H          -4.8921    0.3448   -1.3064 H       1  UNL1        0.0619
     21 H          -2.7009    0.5399   -2.5246 H       1  UNL1        0.0655
     22 H           2.3223   -0.4161    1.9225 H       1  UNL1        0.0641
@<TRIPOS>BOND
     1     1     2   ar
     2     2     3   ar
     3     3     4   ar
     4     4     5   ar
     5     5     6    1
     6     6     7   ar
     7     7     8   ar
     8     8     9   ar
     9     9    10   ar
    10    10    11   ar
    11    11    12   ar
    12    12    13   ar
    13    13    14   ar
    14     5    15   ar
    15    15     1   ar
    16    14     6   ar
    17    13     8   ar
    18     1    16    1
    19     2    17    1
    20     9    18    1
    21    10    19    1
    22    11    20    1
    23    12    21    1
    24    15    22    1
