@<TRIPOS>MOLECULE
*****
 15 16 0 0 0
SMALL
GASTEIGER

@<TRIPOS>ATOM
      1 C           2.3553    0.7444    0.0441 C.ar    1  UNL1       -0.0397
      2 C           2.8154   -0.5061   -0.3159 C.ar    1  UNL1        0.0500
      3 N           1.9844   -1.5421   -0.5356 N.ar    1  UNL1       -0.1570
      4 N           0.6312   -1.3626   -0.4007 N.ar    1  UNL1       -0.1460
      5 C           0.1356   -0.1524   -0.0490 C.ar    1  UNL1        0.1334
      6 C          -1.3155   -0.0370    0.0754 C.ar    1  UNL1        0.2219
      7 N          -2.1772   -1.0953   -0.1483 N.ar    1  UNL1       -0.1928
      8 C          -3.3487   -0.5585    0.0693 C.ar    1  UNL1        0.2147
      9 O          -3.2967    0.7512    0.4117 O.2     1  UNL1       -0.3410
     10 N          -1.9477    1.1036    0.4175 N.ar    1  UNL1       -0.0548
     11 C           0.9827    0.9261    0.1810 C.ar    1  UNL1       -0.0293
     12 H           3.0470    1.5616    0.2151 H       1  UNL1        0.0634
     13 H           3.8710   -0.7181   -0.4402 H       1  UNL1        0.0848
     14 H          -4.3262   -1.0127    0.0126 H       1  UNL1        0.1283
     15 H           0.5894    1.8979    0.4630 H       1  UNL1        0.0641
@<TRIPOS>BOND
     1     1     2   ar
     2     2     3   ar
     3     3     4   ar
     4     4     5   ar
     5     5     6    1
     6     6     7   ar
     7     7     8   ar
     8     8     9   ar
     9     9    10   ar
    10     5    11   ar
    11    11     1   ar
    12    10     6   ar
    13     1    12    1
    14     2    13    1
    15     8    14    1
    16    11    15    1
