@<TRIPOS>MOLECULE
*****
 33 38 0 0 0
SMALL
GASTEIGER

@<TRIPOS>ATOM
      1 C           6.5826    0.1497    0.0836 C.ar    1  UNL1       -0.0233
      2 C           6.1873    1.4321   -0.2000 C.ar    1  UNL1        0.0926
      3 O           4.8352    1.5146   -0.2300 O.2     1  UNL1       -0.4624
      4 C           4.3231    0.2670    0.0378 C.ar    1  UNL1        0.1414
      5 C           5.3899   -0.5989    0.2364 C.ar    1  UNL1       -0.0154
      6 C           2.9076   -0.0121    0.0862 C.ar    1  UNL1        0.0570
      7 C           2.3140   -1.2357    0.3480 C.ar    1  UNL1       -0.0200
      8 C           0.8980   -1.1210    0.3104 C.ar    1  UNL1        0.0554
      9 N          -0.1959   -1.9652    0.4850 N.ar    1  UNL1       -0.3528
     10 C          -1.3207   -1.2181    0.3119 C.ar    1  UNL1        0.0631
     11 C          -2.8304   -1.5606    0.3732 C.ar    1  UNL1        0.0438
     12 S          -3.5612   -3.0496    0.6918 S.2     1  UNL1       -0.0946
     13 C          -5.1389   -2.3568    0.5265 C.ar    1  UNL1       -0.0231
     14 C          -5.1027   -1.0040    0.2315 C.ar    1  UNL1       -0.0463
     15 C          -3.7682   -0.5791    0.1506 C.ar    1  UNL1        0.0003
     16 C          -3.2682    0.7373   -0.1324 C.ar    1  UNL1        0.0083
     17 C          -3.9853    1.8738   -0.3870 C.ar    1  UNL1        0.0100
     18 N          -3.0471    2.8752   -0.5973 N.ar    1  UNL1       -0.3659
     19 C          -1.7590    2.3745   -0.4765 C.ar    1  UNL1        0.0101
     20 C          -1.9038    1.0479   -0.1881 C.ar    1  UNL1        0.0103
     21 C          -0.9311    0.0571    0.0369 C.ar    1  UNL1        0.0242
     22 C           0.4586    0.1555    0.0278 C.ar    1  UNL1        0.0459
     23 S           1.7668    1.2527   -0.2002 S.2     1  UNL1       -0.0830
     24 H           7.6008   -0.2022    0.1695 H       1  UNL1        0.0649
     25 H           6.7152    2.3547   -0.3968 H       1  UNL1        0.1029
     26 H           5.3172   -1.6524    0.4658 H       1  UNL1        0.0655
     27 H           2.8528   -2.1512    0.5528 H       1  UNL1        0.0651
     28 H          -0.1282   -2.9513    0.7009 H       1  UNL1        0.1660
     29 H          -6.0104   -2.9835    0.6556 H       1  UNL1        0.0694
     30 H          -5.9843   -0.3933    0.0903 H       1  UNL1        0.0629
     31 H          -5.0433    2.0870   -0.4430 H       1  UNL1        0.0813
     32 H          -3.2703    3.8387   -0.8097 H       1  UNL1        0.1648
     33 H          -0.8999    3.0172   -0.6092 H       1  UNL1        0.0813
@<TRIPOS>BOND
     1     1     2   ar
     2     2     3   ar
     3     3     4   ar
     4     4     5   ar
     5     4     6    1
     6     6     7   ar
     7     7     8   ar
     8     8     9   ar
     9     9    10   ar
    10    10    11   ar
    11    11    12   ar
    12    12    13   ar
    13    13    14   ar
    14    14    15   ar
    15    15    16   ar
    16    16    17   ar
    17    17    18   ar
    18    18    19   ar
    19    19    20   ar
    20    20    21   ar
    21    21    22   ar
    22    22    23   ar
    23     5     1   ar
    24    23     6   ar
    25    22     8   ar
    26    21    10   ar
    27    15    11   ar
    28    20    16   ar
    29     1    24    1
    30     2    25    1
    31     5    26    1
    32     7    27    1
    33     9    28    1
    34    13    29    1
    35    14    30    1
    36    17    31    1
    37    18    32    1
    38    19    33    1
