@<TRIPOS>MOLECULE
*****
 31 35 0 0 0
SMALL
GASTEIGER

@<TRIPOS>ATOM
      1 C          -5.1487   -0.4293    1.3316 C.ar    1  UNL1       -0.0233
      2 C          -5.1813    0.3405    0.1955 C.ar    1  UNL1        0.0926
      3 O          -3.9252    0.5429   -0.2740 O.2     1  UNL1       -0.4629
      4 C          -3.0575   -0.1005    0.5619 C.ar    1  UNL1        0.1355
      5 C          -3.7818   -0.7144    1.5694 C.ar    1  UNL1       -0.0159
      6 C          -1.6377   -0.0233    0.2558 C.ar    1  UNL1        0.0299
      7 C          -0.6545   -0.6590    1.0648 C.ar    1  UNL1       -0.0264
      8 C           0.7295   -0.5756    0.7542 C.ar    1  UNL1        0.0489
      9 N           1.8389   -1.1003    1.3816 N.ar    1  UNL1       -0.3540
     10 C           2.9984   -0.7529    0.7102 C.ar    1  UNL1        0.0504
     11 C           4.3267   -1.0658    0.9944 C.ar    1  UNL1       -0.0196
     12 C           5.2560   -0.5499    0.1044 C.ar    1  UNL1        0.0295
     13 N           4.9589    0.2057   -0.9749 N.ar    1  UNL1       -0.2625
     14 C           3.6596    0.4993   -1.2342 C.ar    1  UNL1        0.0373
     15 C           2.6424    0.0275   -0.3977 C.ar    1  UNL1        0.0262
     16 C           1.2461    0.1097   -0.3308 C.ar    1  UNL1        0.0196
     17 C           0.3008    0.7598   -1.1663 C.ar    1  UNL1        0.0303
     18 C           0.4684    1.5034   -2.2905 C.ar    1  UNL1        0.1001
     19 O          -0.7749    1.8988   -2.7084 O.2     1  UNL1       -0.4698
     20 C          -1.6909    1.3851   -1.8234 C.ar    1  UNL1        0.1001
     21 C          -1.0667    0.6585   -0.8314 C.ar    1  UNL1        0.0312
     22 H          -6.0020   -0.7451    1.9148 H       1  UNL1        0.0649
     23 H          -5.9745    0.7998   -0.3778 H       1  UNL1        0.1029
     24 H          -3.3764   -1.2998    2.3819 H       1  UNL1        0.0655
     25 H          -0.9613   -1.2234    1.9423 H       1  UNL1        0.0645
     26 H           1.8117   -1.6633    2.2194 H       1  UNL1        0.1659
     27 H           4.6215   -1.6666    1.8446 H       1  UNL1        0.0653
     28 H           6.3170   -0.7417    0.2453 H       1  UNL1        0.0830
     29 H           3.4793    1.1079   -2.1115 H       1  UNL1        0.0836
     30 H           1.2954    1.8380   -2.8980 H       1  UNL1        0.1036
     31 H          -2.7170    1.6339   -2.0534 H       1  UNL1        0.1036
@<TRIPOS>BOND
     1     1     2   ar
     2     2     3   ar
     3     3     4   ar
     4     4     5   ar
     5     4     6    1
     6     6     7   ar
     7     7     8   ar
     8     8     9   ar
     9     9    10   ar
    10    10    11   ar
    11    11    12   ar
    12    12    13   ar
    13    13    14   ar
    14    14    15   ar
    15    15    16   ar
    16    16    17   ar
    17    17    18   ar
    18    18    19   ar
    19    19    20   ar
    20    20    21   ar
    21     5     1   ar
    22    21     6   ar
    23    16     8   ar
    24    21    17   ar
    25    15    10   ar
    26     1    22    1
    27     2    23    1
    28     5    24    1
    29     7    25    1
    30     9    26    1
    31    11    27    1
    32    12    28    1
    33    14    29    1
    34    18    30    1
    35    20    31    1
