@<TRIPOS>MOLECULE
*****
 43 49 0 0 0
SMALL
GASTEIGER

@<TRIPOS>ATOM
      1 SI         -4.3412   -3.0651   -0.0557 Si      1  UNL1        0.0000
      2 C          -5.0767   -1.5701    0.7806 C.2     1  UNL1        0.0000
      3 C          -4.1803   -0.5673    0.8485 C.ar    1  UNL1        0.0000
      4 C          -4.5257    0.7755    1.2559 C.ar    1  UNL1        0.0000
      5 C          -3.6431    1.7715    1.0786 C.ar    1  UNL1        0.0000
      6 C          -2.2918    1.4919    0.5741 C.ar    1  UNL1        0.0000
      7 C          -1.3622    2.4971    0.2946 C.ar    1  UNL1        0.0000
      8 C          -1.5679    3.8570    0.3311 C.ar    1  UNL1        0.0000
      9 N          -0.3906    4.4630   -0.0426 N.ar    1  UNL1        0.0000
     10 C           0.5677    3.5104   -0.3059 C.ar    1  UNL1        0.0000
     11 C          -0.0076    2.2757   -0.1070 C.ar    1  UNL1        0.0000
     12 C           0.6259    1.0155   -0.2159 C.ar    1  UNL1        0.0000
     13 C           2.0299    0.8625   -0.5748 C.ar    1  UNL1        0.0000
     14 C           2.7008   -0.3721   -0.5809 C.ar    1  UNL1        0.0000
     15 C           4.1056   -0.5371   -0.8963 C.ar    1  UNL1        0.0000
     16 C           5.2020    0.0045   -0.2537 C.ar    1  UNL1        0.0000
     17 C           6.4326   -0.3667   -0.8701 C.ar    1  UNL1        0.0000
     18 C           6.2343   -1.1675   -1.9721 C.ar    1  UNL1        0.0000
     19 S           4.5749   -1.4634   -2.2601 S.2     1  UNL1        0.0000
     20 C           1.8644   -1.3863   -0.1221 C.ar    1  UNL1        0.0000
     21 C           2.2202   -2.6789    0.1702 C.ar    1  UNL1        0.0000
     22 O           1.1640   -3.3302    0.7326 O.2     1  UNL1        0.0000
     23 C           0.1279   -2.4447    0.7961 C.ar    1  UNL1        0.0000
     24 C           0.4719   -1.2481    0.2125 C.ar    1  UNL1        0.0000
     25 C          -0.3164   -0.0578    0.1225 C.ar    1  UNL1        0.0000
     26 C          -1.7590    0.1738    0.3649 C.ar    1  UNL1        0.0000
     27 C          -2.8189   -0.8860    0.3438 C.ar    1  UNL1        0.0000
     28 C          -2.7581   -2.0890   -0.2664 C.2     1  UNL1        0.0000
     29 H          -4.9973   -3.3728   -1.3493 H       1  UNL1        0.0000
     30 H          -4.1768   -4.2101    0.8720 H       1  UNL1        0.0000
     31 H          -6.1196   -1.5342    1.0523 H       1  UNL1        0.0000
     32 H          -5.5190    0.9749    1.6431 H       1  UNL1        0.0000
     33 H          -3.9067    2.7869    1.3475 H       1  UNL1        0.0000
     34 H          -2.4333    4.4587    0.5716 H       1  UNL1        0.0000
     35 H          -0.2486    5.4628   -0.1095 H       1  UNL1        0.0000
     36 H           1.5619    3.8157   -0.6010 H       1  UNL1        0.0000
     37 H           2.6001    1.7508   -0.8425 H       1  UNL1        0.0000
     38 H           5.1256    0.6323    0.6262 H       1  UNL1        0.0000
     39 H           7.4119   -0.0599   -0.5237 H       1  UNL1        0.0000
     40 H           6.9829   -1.5912   -2.6275 H       1  UNL1        0.0000
     41 H           3.1329   -3.2537    0.0968 H       1  UNL1        0.0000
     42 H          -0.7492   -2.8215    1.3011 H       1  UNL1        0.0000
     43 H          -1.9474   -2.5071   -0.8394 H       1  UNL1        0.0000
@<TRIPOS>BOND
     1     1     2    1
     2     2     3    2
     3     3     4   ar
     4     4     5   ar
     5     5     6   ar
     6     6     7   ar
     7     7     8   ar
     8     8     9   ar
     9     9    10   ar
    10    10    11   ar
    11    11    12   ar
    12    12    13   ar
    13    13    14   ar
    14    14    15    1
    15    15    16   ar
    16    16    17   ar
    17    17    18   ar
    18    18    19   ar
    19    14    20   ar
    20    20    21   ar
    21    21    22   ar
    22    22    23   ar
    23    23    24   ar
    24    24    25   ar
    25    25    26   ar
    26    26    27   ar
    27    27    28    2
    28    28     1    1
    29    27     3   ar
    30    26     6   ar
    31    11     7   ar
    32    25    12   ar
    33    19    15   ar
    34    24    20   ar
    35     1    29    1
    36     1    30    1
    37     2    31    1
    38     4    32    1
    39     5    33    1
    40     8    34    1
    41     9    35    1
    42    10    36    1
    43    13    37    1
    44    16    38    1
    45    17    39    1
    46    18    40    1
    47    21    41    1
    48    23    42    1
    49    28    43    1
