@<TRIPOS>MOLECULE
*****
 39 45 0 0 0
SMALL
GASTEIGER

@<TRIPOS>ATOM
      1 C          -6.0193   -2.1905    0.2203 C.ar    1  UNL1       -0.0232
      2 C          -6.4052   -0.8933   -0.0117 C.ar    1  UNL1        0.0927
      3 O          -5.3197   -0.0875   -0.1282 O.2     1  UNL1       -0.4598
      4 C          -4.2025   -0.8687    0.0298 C.ar    1  UNL1        0.1697
      5 C          -4.6043   -2.1761    0.2472 C.ar    1  UNL1       -0.0128
      6 C          -2.8701   -0.3508   -0.0319 C.ar    1  UNL1        0.1712
      7 C          -2.4615    0.9502   -0.2481 C.ar    1  UNL1       -0.0044
      8 C          -1.0338    0.9675   -0.2214 C.ar    1  UNL1        0.0293
      9 C          -0.6529   -0.3435    0.0128 C.ar    1  UNL1        0.1463
     10 O          -1.7614   -1.1309    0.1258 O.2     1  UNL1       -0.4510
     11 C           0.6747   -0.7727    0.1145 C.ar    1  UNL1        0.0557
     12 C           0.9867   -2.1430    0.3575 C.ar    1  UNL1        0.1118
     13 N           0.1347   -3.1813    0.5191 N.ar    1  UNL1       -0.1900
     14 S           1.0522   -4.5524    0.7748 S.2     1  UNL1        0.1165
     15 N           2.5911   -3.9023    0.6945 N.ar    1  UNL1       -0.1901
     16 C           2.3427   -2.6208    0.4681 C.ar    1  UNL1        0.1097
     17 C           3.3755   -1.6545    0.3227 C.ar    1  UNL1        0.0284
     18 C           4.7482   -1.9039    0.3943 C.ar    1  UNL1       -0.0345
     19 C           5.3312   -0.6779    0.1946 C.ar    1  UNL1        0.0028
     20 N           4.3317    0.2528    0.0132 N.ar    1  UNL1       -0.3601
     21 C           3.0686   -0.3206    0.0861 C.ar    1  UNL1        0.0572
     22 C           1.7212    0.2114   -0.0337 C.ar    1  UNL1        0.0194
     23 C           1.3569    1.6021   -0.2813 C.ar    1  UNL1       -0.0073
     24 C           2.2479    2.6953   -0.4515 C.ar    1  UNL1       -0.0534
     25 C           1.8206    4.0105   -0.6874 C.ar    1  UNL1       -0.0611
     26 C           0.4708    4.3022   -0.7658 C.ar    1  UNL1       -0.0611
     27 C          -0.4517    3.2778   -0.6081 C.ar    1  UNL1       -0.0533
     28 C          -0.0251    1.9508   -0.3702 C.ar    1  UNL1       -0.0064
     29 H          -6.6739   -3.0400    0.3534 H       1  UNL1        0.0649
     30 H          -7.3634   -0.4037   -0.1160 H       1  UNL1        0.1029
     31 H          -3.9395   -3.0150    0.4058 H       1  UNL1        0.0656
     32 H          -3.1277    1.7866   -0.4063 H       1  UNL1        0.0663
     33 H           5.2552   -2.8447    0.5672 H       1  UNL1        0.0639
     34 H           6.3708   -0.3787    0.1645 H       1  UNL1        0.0807
     35 H           4.5329    1.2236   -0.1503 H       1  UNL1        0.1654
     36 H           3.3170    2.5712   -0.4078 H       1  UNL1        0.0624
     37 H           2.5539    4.8045   -0.8092 H       1  UNL1        0.0618
     38 H           0.1360    5.3195   -0.9484 H       1  UNL1        0.0618
     39 H          -1.5083    3.5267   -0.6731 H       1  UNL1        0.0624
@<TRIPOS>BOND
     1     1     2   ar
     2     2     3   ar
     3     3     4   ar
     4     4     5   ar
     5     4     6    1
     6     6     7   ar
     7     7     8   ar
     8     8     9   ar
     9     9    10   ar
    10     9    11   ar
    11    11    12   ar
    12    12    13   ar
    13    13    14   ar
    14    14    15   ar
    15    15    16   ar
    16    16    17   ar
    17    17    18   ar
    18    18    19   ar
    19    19    20   ar
    20    20    21   ar
    21    21    22   ar
    22    22    23   ar
    23    23    24   ar
    24    24    25   ar
    25    25    26   ar
    26    26    27   ar
    27    27    28   ar
    28     5     1   ar
    29    10     6   ar
    30    22    11   ar
    31    28    23   ar
    32    28     8   ar
    33    16    12   ar
    34    21    17   ar
    35     1    29    1
    36     2    30    1
    37     5    31    1
    38     7    32    1
    39    18    33    1
    40    19    34    1
    41    20    35    1
    42    24    36    1
    43    25    37    1
    44    26    38    1
    45    27    39    1
