@<TRIPOS>MOLECULE
*****
 41 47 0 0 0
SMALL
GASTEIGER

@<TRIPOS>ATOM
      1 C           5.9471    2.3301    0.0133 C.ar    1  UNL1       -0.0233
      2 C           6.4283    1.0454    0.0356 C.ar    1  UNL1        0.0926
      3 O           5.4047    0.1572    0.0446 O.2     1  UNL1       -0.4615
      4 C           4.2287    0.8644    0.0281 C.ar    1  UNL1        0.1509
      5 C           4.5348    2.2163    0.0085 C.ar    1  UNL1       -0.0144
      6 C           2.9532    0.2150    0.0322 C.ar    1  UNL1        0.0831
      7 C           2.6736   -1.1390    0.0520 C.ar    1  UNL1       -0.0250
      8 C           1.2838   -1.2177    0.0467 C.ar    1  UNL1        0.0101
      9 C           0.4485   -2.3609    0.0606 C.ar    1  UNL1        0.0092
     10 C           0.8083   -3.6735    0.0828 C.ar    1  UNL1        0.0101
     11 N          -0.3861   -4.3548    0.0878 N.ar    1  UNL1       -0.3659
     12 C          -1.4508   -3.4623    0.0688 C.ar    1  UNL1        0.0101
     13 C          -0.9482   -2.1757    0.0511 C.ar    1  UNL1        0.0098
     14 C          -1.6423   -0.9511    0.0287 C.ar    1  UNL1        0.0178
     15 C          -3.0550   -0.7778    0.0193 C.ar    1  UNL1        0.0556
     16 N          -4.1281   -1.6468    0.0278 N.ar    1  UNL1       -0.3601
     17 C          -5.3251   -0.9592    0.0114 C.ar    1  UNL1        0.0028
     18 C          -5.0549    0.3920   -0.0084 C.ar    1  UNL1       -0.0360
     19 C          -3.6643    0.4679   -0.0030 C.ar    1  UNL1        0.0094
     20 C          -2.8279    1.6112   -0.0168 C.ar    1  UNL1        0.0092
     21 C          -3.1868    2.9242   -0.0390 C.ar    1  UNL1        0.0101
     22 N          -1.9921    3.6048   -0.0440 N.ar    1  UNL1       -0.3659
     23 C          -0.9277    2.7119   -0.0250 C.ar    1  UNL1        0.0101
     24 C          -1.4312    1.4255   -0.0073 C.ar    1  UNL1        0.0098
     25 C          -0.7376    0.2007    0.0150 C.ar    1  UNL1        0.0178
     26 C           0.6747    0.0266    0.0244 C.ar    1  UNL1        0.0561
     27 N           1.7490    0.8942    0.0159 N.ar    1  UNL1       -0.3512
     28 H           6.5387    3.2343    0.0020 H       1  UNL1        0.0649
     29 H           7.4196    0.6145    0.0469 H       1  UNL1        0.1029
     30 H           3.8267    3.0316   -0.0075 H       1  UNL1        0.0656
     31 H           3.3993   -1.9404    0.0680 H       1  UNL1        0.0646
     32 H           1.7599   -4.1859    0.0953 H       1  UNL1        0.0813
     33 H          -0.4779   -5.3621    0.1031 H       1  UNL1        0.1648
     34 H          -2.4478   -3.8688    0.0705 H       1  UNL1        0.0813
     35 H          -4.0550   -2.6508    0.0438 H       1  UNL1        0.1654
     36 H          -6.2625   -1.4986    0.0154 H       1  UNL1        0.0807
     37 H          -5.7790    1.1942   -0.0243 H       1  UNL1        0.0639
     38 H          -4.1379    3.4372   -0.0515 H       1  UNL1        0.0813
     39 H          -1.9001    4.6121   -0.0593 H       1  UNL1        0.1648
     40 H           0.0692    3.1184   -0.0266 H       1  UNL1        0.0813
     41 H           1.6703    1.8960   -0.0001 H       1  UNL1        0.1660
@<TRIPOS>BOND
     1     1     2   ar
     2     2     3   ar
     3     3     4   ar
     4     4     5   ar
     5     4     6    1
     6     6     7   ar
     7     7     8   ar
     8     8     9   ar
     9     9    10   ar
    10    10    11   ar
    11    11    12   ar
    12    12    13   ar
    13    13    14   ar
    14    14    15   ar
    15    15    16   ar
    16    16    17   ar
    17    17    18   ar
    18    18    19   ar
    19    19    20   ar
    20    20    21   ar
    21    21    22   ar
    22    22    23   ar
    23    23    24   ar
    24    24    25   ar
    25    25    26   ar
    26    26    27   ar
    27     5     1   ar
    28    27     6   ar
    29    26     8   ar
    30    13     9   ar
    31    25    14   ar
    32    19    15   ar
    33    24    20   ar
    34     1    28    1
    35     2    29    1
    36     5    30    1
    37     7    31    1
    38    10    32    1
    39    11    33    1
    40    12    34    1
    41    16    35    1
    42    17    36    1
    43    18    37    1
    44    21    38    1
    45    22    39    1
    46    23    40    1
    47    27    41    1
