@<TRIPOS>MOLECULE
*****
 39 45 0 0 0
SMALL
GASTEIGER

@<TRIPOS>ATOM
      1 C           6.8406   -0.0611    1.2315 C.ar    1  UNL1       -0.0233
      2 C           6.2533    0.2270    2.4372 C.ar    1  UNL1        0.0926
      3 O           4.9038    0.2391    2.3149 O.2     1  UNL1       -0.4624
      4 C           4.5897   -0.0457    1.0074 C.ar    1  UNL1        0.1414
      5 C           5.7764   -0.2364    0.3134 C.ar    1  UNL1       -0.0154
      6 C           3.2359   -0.1151    0.5220 C.ar    1  UNL1        0.0556
      7 C           2.8133   -0.3907   -0.7592 C.ar    1  UNL1       -0.0355
      8 C           1.4074   -0.3626   -0.8170 C.ar    1  UNL1        0.0012
      9 C           0.6482   -0.6022   -1.9819 C.ar    1  UNL1        0.0287
     10 C           1.1084   -0.8954   -3.2265 C.ar    1  UNL1        0.1000
     11 O           0.0204   -1.0441   -4.0298 O.2     1  UNL1       -0.4698
     12 C          -1.0902   -0.8364   -3.2504 C.ar    1  UNL1        0.1000
     13 C          -0.7565   -0.5513   -1.9383 C.ar    1  UNL1        0.0288
     14 C          -1.6107   -0.2747   -0.8191 C.ar    1  UNL1        0.0037
     15 C          -3.1139   -0.2239   -0.7891 C.ar    1  UNL1        0.0093
     16 C          -3.9849   -0.4427   -1.8758 C.ar    1  UNL1        0.0359
     17 N          -5.3477   -0.4039   -1.8807 N.ar    1  UNL1       -0.2626
     18 C          -5.9504   -0.1254   -0.7201 C.ar    1  UNL1        0.0282
     19 C          -5.2516    0.1148    0.4395 C.ar    1  UNL1       -0.0353
     20 C          -3.8340    0.0655    0.4048 C.ar    1  UNL1       -0.0062
     21 C          -2.9978    0.2935    1.5278 C.ar    1  UNL1       -0.0024
     22 C          -3.5100    0.5887    2.7744 C.ar    1  UNL1       -0.0160
     23 S          -2.2889    0.8151    3.9409 S.2     1  UNL1       -0.1038
     24 C          -1.0636    0.5186    2.7812 C.ar    1  UNL1       -0.0160
     25 C          -1.5434    0.2483    1.5163 C.ar    1  UNL1       -0.0015
     26 C          -0.7565   -0.0339    0.3634 C.ar    1  UNL1        0.0060
     27 C           0.6943   -0.0819    0.3385 C.ar    1  UNL1        0.0290
     28 S           1.9079    0.1580    1.5642 S.2     1  UNL1       -0.0845
     29 H           7.9014   -0.1357    1.0380 H       1  UNL1        0.0649
     30 H           6.6342    0.4383    3.4267 H       1  UNL1        0.1029
     31 H           5.8666   -0.4751   -0.7369 H       1  UNL1        0.0655
     32 H           3.4826   -0.5958   -1.5843 H       1  UNL1        0.0636
     33 H           2.0712   -1.0295   -3.6977 H       1  UNL1        0.1036
     34 H          -1.9950   -0.9388   -3.8238 H       1  UNL1        0.1036
     35 H          -3.6226   -0.6752   -2.8631 H       1  UNL1        0.0836
     36 H          -7.0352   -0.0993   -0.7453 H       1  UNL1        0.0830
     37 H          -5.8055    0.3343    1.3437 H       1  UNL1        0.0639
     38 H          -4.5371    0.6901    3.0919 H       1  UNL1        0.0700
     39 H          -0.0600    0.5747    3.1614 H       1  UNL1        0.0700
@<TRIPOS>BOND
     1     1     2   ar
     2     2     3   ar
     3     3     4   ar
     4     4     5   ar
     5     4     6    1
     6     6     7   ar
     7     7     8   ar
     8     8     9   ar
     9     9    10   ar
    10    10    11   ar
    11    11    12   ar
    12    12    13   ar
    13    13    14   ar
    14    14    15   ar
    15    15    16   ar
    16    16    17   ar
    17    17    18   ar
    18    18    19   ar
    19    19    20   ar
    20    20    21   ar
    21    21    22   ar
    22    22    23   ar
    23    23    24   ar
    24    24    25   ar
    25    25    26   ar
    26    26    27   ar
    27    27    28   ar
    28     5     1   ar
    29    28     6   ar
    30    27     8   ar
    31    13     9   ar
    32    26    14   ar
    33    20    15   ar
    34    25    21   ar
    35     1    29    1
    36     2    30    1
    37     5    31    1
    38     7    32    1
    39    10    33    1
    40    12    34    1
    41    16    35    1
    42    18    36    1
    43    19    37    1
    44    22    38    1
    45    24    39    1
