@<TRIPOS>MOLECULE
*****
 43 49 0 0 0
SMALL
GASTEIGER

@<TRIPOS>ATOM
      1 C           6.8778    1.3719    0.8888 C.ar    1  UNL1       -0.0233
      2 C           6.8887    0.0977    0.3738 C.ar    1  UNL1        0.0926
      3 O           5.6215   -0.3392    0.1550 O.2     1  UNL1       -0.4614
      4 C           4.7742    0.6677    0.5342 C.ar    1  UNL1        0.1529
      5 C           5.5152    1.7406    0.9924 C.ar    1  UNL1       -0.0144
      6 C           3.3463    0.4233    0.3869 C.ar    1  UNL1        0.1065
      7 C           2.8296   -0.7682   -0.0838 C.ar    1  UNL1       -0.0243
      8 C           1.4233   -0.9061   -0.1913 C.ar    1  UNL1       -0.0055
      9 C           0.7500   -2.0917   -0.5712 C.ar    1  UNL1       -0.0024
     10 C           1.3991   -3.2504   -0.9381 C.ar    1  UNL1       -0.0160
     11 S           0.3018   -4.4929   -1.3601 S.2     1  UNL1       -0.1038
     12 C          -1.0474   -3.4816   -1.0471 C.ar    1  UNL1       -0.0159
     13 C          -0.6853   -2.2401   -0.5695 C.ar    1  UNL1       -0.0006
     14 C          -1.5818   -1.1994   -0.2306 C.ar    1  UNL1        0.0154
     15 C          -2.9719   -1.3530   -0.0373 C.ar    1  UNL1        0.0555
     16 N          -3.7629   -2.4791    0.0928 N.ar    1  UNL1       -0.3601
     17 C          -5.0731   -2.1441    0.2824 C.ar    1  UNL1        0.0028
     18 C          -5.1426   -0.7753    0.3176 C.ar    1  UNL1       -0.0361
     19 C          -3.8185   -0.2601    0.1519 C.ar    1  UNL1        0.0080
     20 C          -3.2650    1.0428    0.0944 C.ar    1  UNL1       -0.0081
     21 C          -4.1534    2.1424    0.1641 C.ar    1  UNL1       -0.0534
     22 C          -3.6894    3.4442    0.0256 C.ar    1  UNL1       -0.0611
     23 C          -2.3441    3.6573   -0.2145 C.ar    1  UNL1       -0.0611
     24 C          -1.4612    2.5707   -0.2668 C.ar    1  UNL1       -0.0534
     25 C          -1.8609    1.2243   -0.0507 C.ar    1  UNL1       -0.0088
     26 C          -0.9604    0.0875   -0.0521 C.ar    1  UNL1        0.0016
     27 C           0.5249    0.1644    0.1067 C.ar    1  UNL1        0.0092
     28 C           1.2069    1.2699    0.6456 C.ar    1  UNL1        0.0367
     29 N           2.5526    1.4397    0.7754 N.ar    1  UNL1       -0.2512
     30 H           7.7431    1.9615    1.1561 H       1  UNL1        0.0649
     31 H           7.6740   -0.5998    0.1178 H       1  UNL1        0.1029
     32 H           5.1051    2.6729    1.3558 H       1  UNL1        0.0656
     33 H           3.5011   -1.5781   -0.3424 H       1  UNL1        0.0646
     34 H           2.4582   -3.4534   -1.0064 H       1  UNL1        0.0700
     35 H          -2.0199   -3.8816   -1.2811 H       1  UNL1        0.0700
     36 H          -3.4187   -3.4265    0.1174 H       1  UNL1        0.1654
     37 H          -5.8352   -2.9039    0.3923 H       1  UNL1        0.0807
     38 H          -6.0491   -0.2034    0.4640 H       1  UNL1        0.0639
     39 H          -5.2207    1.9918    0.3044 H       1  UNL1        0.0624
     40 H          -4.3810    4.2807    0.0678 H       1  UNL1        0.0618
     41 H          -1.9726    4.6653   -0.3816 H       1  UNL1        0.0618
     42 H          -0.4399    2.8088   -0.5531 H       1  UNL1        0.0624
     43 H           0.6617    2.1026    1.0824 H       1  UNL1        0.0836
@<TRIPOS>BOND
     1     1     2   ar
     2     2     3   ar
     3     3     4   ar
     4     4     5   ar
     5     4     6    1
     6     6     7   ar
     7     7     8   ar
     8     8     9   ar
     9     9    10   ar
    10    10    11   ar
    11    11    12   ar
    12    12    13   ar
    13    13    14   ar
    14    14    15   ar
    15    15    16   ar
    16    16    17   ar
    17    17    18   ar
    18    18    19   ar
    19    19    20   ar
    20    20    21   ar
    21    21    22   ar
    22    22    23   ar
    23    23    24   ar
    24    24    25   ar
    25    25    26   ar
    26    26    27   ar
    27    27    28   ar
    28    28    29   ar
    29     5     1   ar
    30    29     6   ar
    31    27     8   ar
    32    13     9   ar
    33    26    14   ar
    34    19    15   ar
    35    25    20   ar
    36     1    30    1
    37     2    31    1
    38     5    32    1
    39     7    33    1
    40    10    34    1
    41    12    35    1
    42    16    36    1
    43    17    37    1
    44    18    38    1
    45    21    39    1
    46    22    40    1
    47    23    41    1
    48    24    42    1
    49    28    43    1
