@<TRIPOS>MOLECULE
*****
 32 37 0 0 0
SMALL
GASTEIGER

@<TRIPOS>ATOM
      1 C           6.1096   -1.0854   -0.0009 C.ar    1  UNL1       -0.0233
      2 C           5.4300   -2.1894   -0.4521 C.ar    1  UNL1        0.0926
      3 O           4.0937   -1.9560   -0.4534 O.2     1  UNL1       -0.4615
      4 C           3.8921   -0.6784    0.0043 C.ar    1  UNL1        0.1509
      5 C           5.1224   -0.1135    0.2928 C.ar    1  UNL1       -0.0144
      6 C           2.5857   -0.1132    0.1272 C.ar    1  UNL1        0.0832
      7 C           2.1789    1.1423    0.5633 C.ar    1  UNL1       -0.0235
      8 C           0.7880    1.1282    0.4672 C.ar    1  UNL1        0.0296
      9 C          -0.1885    2.1160    0.7675 C.ar    1  UNL1        0.1097
     10 N           0.1483    3.3147    1.2312 N.ar    1  UNL1       -0.1901
     11 S          -1.3451    4.0830    1.4167 S.2     1  UNL1        0.1165
     12 N          -2.3989    2.8664    0.8996 N.ar    1  UNL1       -0.1901
     13 C          -1.5858    1.8625    0.5828 C.ar    1  UNL1        0.1094
     14 C          -2.0794    0.5995    0.0851 C.ar    1  UNL1        0.0285
     15 C          -3.4285    0.2172   -0.1439 C.ar    1  UNL1        0.0172
     16 C          -4.6611    0.8718    0.0168 C.ar    1  UNL1        0.0364
     17 N          -5.8299    0.2563   -0.2864 N.ar    1  UNL1       -0.2626
     18 C          -5.8060   -1.0058   -0.7499 C.ar    1  UNL1        0.0286
     19 C          -4.6550   -1.7429   -0.9464 C.ar    1  UNL1       -0.0292
     20 C          -3.4509   -1.1011   -0.6312 C.ar    1  UNL1        0.0235
     21 S          -1.8555   -1.7748   -0.7752 S.2     1  UNL1       -0.0860
     22 C          -1.1466   -0.3591   -0.2072 C.ar    1  UNL1        0.0466
     23 C           0.3505   -0.0752   -0.0048 C.ar    1  UNL1        0.0637
     24 N           1.4576   -0.8429   -0.2154 N.ar    1  UNL1       -0.3508
     25 H           7.1812   -0.9914    0.1038 H       1  UNL1        0.0649
     26 H           5.7343   -3.1691   -0.7932 H       1  UNL1        0.1029
     27 H           5.2865    0.8856    0.6717 H       1  UNL1        0.0656
     28 H           2.8155    1.9490    0.9021 H       1  UNL1        0.0646
     29 H          -4.7504    1.8884    0.3856 H       1  UNL1        0.0836
     30 H          -6.7812   -1.4322   -0.9707 H       1  UNL1        0.0830
     31 H          -4.6861   -2.7579   -1.3224 H       1  UNL1        0.0644
     32 H           1.4746   -1.7928   -0.5643 H       1  UNL1        0.1660
@<TRIPOS>BOND
     1     1     2   ar
     2     2     3   ar
     3     3     4   ar
     4     4     5   ar
     5     4     6    1
     6     6     7   ar
     7     7     8   ar
     8     8     9   ar
     9     9    10   ar
    10    10    11   ar
    11    11    12   ar
    12    12    13   ar
    13    13    14   ar
    14    14    15   ar
    15    15    16   ar
    16    16    17   ar
    17    17    18   ar
    18    18    19   ar
    19    19    20   ar
    20    20    21   ar
    21    21    22   ar
    22    22    23   ar
    23    23    24   ar
    24     5     1   ar
    25    24     6   ar
    26    23     8   ar
    27    13     9   ar
    28    22    14   ar
    29    20    15   ar
    30     1    25    1
    31     2    26    1
    32     5    27    1
    33     7    28    1
    34    16    29    1
    35    18    30    1
    36    19    31    1
    37    24    32    1
