@<TRIPOS>MOLECULE
*****
 37 43 0 0 0
SMALL
GASTEIGER

@<TRIPOS>ATOM
      1 C          -6.4056   -0.2734   -0.0994 C.ar    1  UNL1       -0.0233
      2 C          -5.9749   -1.0628    0.9394 C.ar    1  UNL1        0.0926
      3 O          -4.6258   -0.9853    1.0662 O.2     1  UNL1       -0.4629
      4 C          -4.1747   -0.1239    0.1054 C.ar    1  UNL1        0.1354
      5 C          -5.2439    0.3277   -0.6434 C.ar    1  UNL1       -0.0159
      6 C          -2.7421    0.0797    0.0802 C.ar    1  UNL1        0.0261
      7 C          -1.8249   -0.9730    0.2610 C.ar    1  UNL1       -0.0406
      8 C          -0.3938   -0.8158    0.2061 C.ar    1  UNL1        0.0127
      9 C           0.4414   -1.9529    0.3922 C.ar    1  UNL1        0.1082
     10 N           0.0291   -3.2191    0.6256 N.ar    1  UNL1       -0.1901
     11 S           1.3895   -4.1704    0.7703 S.2     1  UNL1        0.1165
     12 N           2.5754   -3.0204    0.5385 N.ar    1  UNL1       -0.1901
     13 C           1.8887   -1.9023    0.3528 C.ar    1  UNL1        0.1093
     14 C           2.5262   -0.6296    0.1096 C.ar    1  UNL1        0.0271
     15 C           3.9461   -0.4480    0.0456 C.ar    1  UNL1        0.0171
     16 C           5.0488   -1.3135    0.1782 C.ar    1  UNL1        0.0364
     17 N           6.3219   -0.8609    0.0681 N.ar    1  UNL1       -0.2626
     18 C           6.5356    0.4426   -0.1726 C.ar    1  UNL1        0.0286
     19 C           5.5308    1.3756   -0.3196 C.ar    1  UNL1       -0.0292
     20 C           4.2195    0.8958   -0.2040 C.ar    1  UNL1        0.0234
     21 S           2.7868    1.8241   -0.3414 S.2     1  UNL1       -0.0874
     22 C           1.7194    0.4899   -0.0745 C.ar    1  UNL1        0.0310
     23 C           0.2919    0.4320   -0.0322 C.ar    1  UNL1        0.0069
     24 C          -0.6447    1.4901   -0.1943 C.ar    1  UNL1       -0.0013
     25 C          -0.3405    2.8149   -0.4185 C.ar    1  UNL1       -0.0160
     26 S          -1.7253    3.8214   -0.5279 S.2     1  UNL1       -0.1038
     27 C          -2.7798    2.5028   -0.2720 C.ar    1  UNL1       -0.0159
     28 C          -2.1017    1.3115   -0.1373 C.ar    1  UNL1        0.0004
     29 H          -7.4280   -0.1538   -0.4289 H       1  UNL1        0.0649
     30 H          -6.4735   -1.7120    1.6458 H       1  UNL1        0.1029
     31 H          -5.1929    0.9981   -1.4898 H       1  UNL1        0.0655
     32 H          -2.2317   -1.9711    0.4437 H       1  UNL1        0.0631
     33 H           4.9580   -2.3766    0.3731 H       1  UNL1        0.0836
     34 H           7.5801    0.7330   -0.2481 H       1  UNL1        0.0830
     35 H           5.7481    2.4189   -0.5134 H       1  UNL1        0.0644
     36 H           0.6086    3.3111   -0.5242 H       1  UNL1        0.0700
     37 H          -3.8420    2.6958   -0.2300 H       1  UNL1        0.0700
@<TRIPOS>BOND
     1     1     2   ar
     2     2     3   ar
     3     3     4   ar
     4     4     5   ar
     5     4     6    1
     6     6     7   ar
     7     7     8   ar
     8     8     9   ar
     9     9    10   ar
    10    10    11   ar
    11    11    12   ar
    12    12    13   ar
    13    13    14   ar
    14    14    15   ar
    15    15    16   ar
    16    16    17   ar
    17    17    18   ar
    18    18    19   ar
    19    19    20   ar
    20    20    21   ar
    21    21    22   ar
    22    22    23   ar
    23    23    24   ar
    24    24    25   ar
    25    25    26   ar
    26    26    27   ar
    27    27    28   ar
    28     5     1   ar
    29    28     6   ar
    30    23     8   ar
    31    28    24   ar
    32    13     9   ar
    33    22    14   ar
    34    20    15   ar
    35     1    29    1
    36     2    30    1
    37     5    31    1
    38     7    32    1
    39    16    33    1
    40    18    34    1
    41    19    35    1
    42    25    36    1
    43    27    37    1
