@<TRIPOS>MOLECULE
*****
 37 42 0 0 0
SMALL
GASTEIGER

@<TRIPOS>ATOM
      1 C           6.5134    0.4648   -0.2539 C.ar    1  UNL1       -0.0233
      2 C           5.9500    1.6578   -0.6353 C.ar    1  UNL1        0.0926
      3 O           4.6001    1.6056   -0.5092 O.2     1  UNL1       -0.4629
      4 C           4.2793    0.3655   -0.0275 C.ar    1  UNL1        0.1355
      5 C           5.4368   -0.3713    0.1333 C.ar    1  UNL1       -0.0159
      6 C           2.8676    0.1271    0.1714 C.ar    1  UNL1        0.0285
      7 C           1.8378    0.7707   -0.5701 C.ar    1  UNL1       -0.0425
      8 C           0.4191    0.5447   -0.4141 C.ar    1  UNL1       -0.0130
      9 C          -0.4877    1.2466   -1.2207 C.ar    1  UNL1       -0.0110
     10 C          -1.8530    1.0045   -1.0457 C.ar    1  UNL1        0.1368
     11 O          -2.8466    1.6092   -1.7546 O.2     1  UNL1       -0.4548
     12 C          -4.0260    1.1110   -1.2932 C.ar    1  UNL1        0.1362
     13 C          -5.2890    1.4720   -1.7573 C.ar    1  UNL1       -0.0187
     14 C          -6.3814    0.8434   -1.1508 C.ar    1  UNL1       -0.0582
     15 C          -6.2001   -0.0964   -0.1329 C.ar    1  UNL1       -0.0610
     16 C          -4.9155   -0.4395    0.3134 C.ar    1  UNL1       -0.0504
     17 C          -3.8018    0.1814   -0.2836 C.ar    1  UNL1        0.0279
     18 C          -2.3865    0.1124   -0.1232 C.ar    1  UNL1        0.0285
     19 C          -1.5059   -0.6068    0.7017 C.ar    1  UNL1       -0.0420
     20 C          -0.1129   -0.3807    0.5437 C.ar    1  UNL1       -0.0063
     21 C           0.9235   -1.0003    1.2778 C.ar    1  UNL1        0.0282
     22 C           0.8060   -1.9220    2.2862 C.ar    1  UNL1        0.1000
     23 O           2.0455   -2.2534    2.7542 O.2     1  UNL1       -0.4698
     24 C           2.9615   -1.5355    2.0369 C.ar    1  UNL1        0.1001
     25 C           2.3232   -0.7605    1.1013 C.ar    1  UNL1        0.0311
     26 H           7.5671    0.2246   -0.2612 H       1  UNL1        0.0649
     27 H           6.3488    2.5920   -1.0054 H       1  UNL1        0.1029
     28 H           5.5046   -1.3951    0.4716 H       1  UNL1        0.0655
     29 H           2.1532    1.4930   -1.3280 H       1  UNL1        0.0631
     30 H          -0.1592    1.9629   -1.9663 H       1  UNL1        0.0660
     31 H          -5.4111    2.2028   -2.5474 H       1  UNL1        0.0654
     32 H          -7.3887    1.0920   -1.4786 H       1  UNL1        0.0619
     33 H          -7.0681   -0.5699    0.3214 H       1  UNL1        0.0618
     34 H          -4.7872   -1.1712    1.1052 H       1  UNL1        0.0625
     35 H          -1.8864   -1.3104    1.4335 H       1  UNL1        0.0631
     36 H          -0.0195   -2.4166    2.7777 H       1  UNL1        0.1036
     37 H           3.9891   -1.6937    2.3295 H       1  UNL1        0.1036
@<TRIPOS>BOND
     1     1     2   ar
     2     2     3   ar
     3     3     4   ar
     4     4     5   ar
     5     4     6    1
     6     6     7   ar
     7     7     8   ar
     8     8     9   ar
     9     9    10   ar
    10    10    11   ar
    11    11    12   ar
    12    12    13   ar
    13    13    14   ar
    14    14    15   ar
    15    15    16   ar
    16    16    17   ar
    17    17    18   ar
    18    18    19   ar
    19    19    20   ar
    20    20    21   ar
    21    21    22   ar
    22    22    23   ar
    23    23    24   ar
    24    24    25   ar
    25     5     1   ar
    26    25     6   ar
    27    20     8   ar
    28    25    21   ar
    29    18    10   ar
    30    17    12   ar
    31     1    26    1
    32     2    27    1
    33     5    28    1
    34     7    29    1
    35     9    30    1
    36    13    31    1
    37    14    32    1
    38    15    33    1
    39    16    34    1
    40    19    35    1
    41    22    36    1
    42    24    37    1
