@<TRIPOS>MOLECULE
*****
 41 48 0 0 0
SMALL
GASTEIGER

@<TRIPOS>ATOM
      1 C           6.8458    0.6377   -1.1454 C.ar    1  UNL1       -0.0233
      2 C           6.8358    0.0551    0.0990 C.ar    1  UNL1        0.0926
      3 O           5.5671   -0.2598    0.4650 O.2     1  UNL1       -0.4629
      4 C           4.7440    0.1120   -0.5591 C.ar    1  UNL1        0.1354
      5 C           5.4946    0.6848   -1.5675 C.ar    1  UNL1       -0.0159
      6 C           3.3265   -0.1024   -0.3653 C.ar    1  UNL1        0.0261
      7 C           2.3492    0.8136   -0.7958 C.ar    1  UNL1       -0.0413
      8 C           0.9327    0.6513   -0.6148 C.ar    1  UNL1        0.0022
      9 C           0.0957    1.6126   -1.1417 C.ar    1  UNL1        0.0360
     10 N          -1.2522    1.6050   -1.0682 N.ar    1  UNL1       -0.2536
     11 C          -1.9102    0.6725   -0.3719 C.ar    1  UNL1        0.0836
     12 C          -3.3450    0.7692   -0.3045 C.ar    1  UNL1        0.0384
     13 C          -4.1315    1.7522   -1.0336 C.ar    1  UNL1        0.1097
     14 N          -3.6795    2.7015   -1.8750 N.ar    1  UNL1       -0.1901
     15 S          -4.9759    3.5525   -2.4383 S.2     1  UNL1        0.1165
     16 N          -6.2112    2.7713   -1.6632 N.ar    1  UNL1       -0.1908
     17 C          -5.6469    1.8053   -0.9226 C.ar    1  UNL1        0.1006
     18 C          -6.3667    0.9082   -0.1088 C.ar    1  UNL1       -0.0328
     19 C          -5.5985   -0.0261    0.5880 C.ar    1  UNL1       -0.0497
     20 C          -4.1712   -0.0913    0.4943 C.ar    1  UNL1        0.0145
     21 C          -3.4543   -1.0492    1.2647 C.ar    1  UNL1        0.1083
     22 N          -4.0061   -1.9188    2.1314 N.ar    1  UNL1       -0.1901
     23 S          -2.7712   -2.7494    2.8407 S.2     1  UNL1        0.1165
     24 N          -1.4895   -2.0703    2.0605 N.ar    1  UNL1       -0.1901
     25 C          -1.9536   -1.1719    1.1751 C.ar    1  UNL1        0.1102
     26 C          -1.1612   -0.3534    0.2819 C.ar    1  UNL1        0.0375
     27 C           0.2931   -0.4315    0.0614 C.ar    1  UNL1        0.0031
     28 C           1.3010   -1.4229    0.3749 C.ar    1  UNL1       -0.0018
     29 C           1.0314   -2.7222    0.7408 C.ar    1  UNL1       -0.0160
     30 S           2.4424   -3.6479    1.0436 S.2     1  UNL1       -0.1038
     31 C           3.4580   -2.3647    0.5527 C.ar    1  UNL1       -0.0159
     32 C           2.7395   -1.2484    0.1838 C.ar    1  UNL1        0.0004
     33 H           7.7178    0.9895   -1.6786 H       1  UNL1        0.0649
     34 H           7.6040   -0.1906    0.8191 H       1  UNL1        0.1029
     35 H           5.1136    1.0822   -2.4977 H       1  UNL1        0.0655
     36 H           2.7006    1.7201   -1.2947 H       1  UNL1        0.0631
     37 H           0.4872    2.4660   -1.6928 H       1  UNL1        0.0836
     38 H          -7.4464    0.9486   -0.0297 H       1  UNL1        0.0640
     39 H          -6.1247   -0.7314    1.2350 H       1  UNL1        0.0625
     40 H           0.0893   -3.2337    0.8381 H       1  UNL1        0.0700
     41 H           4.5270   -2.5252    0.5337 H       1  UNL1        0.0700
@<TRIPOS>BOND
     1     1     2   ar
     2     2     3   ar
     3     3     4   ar
     4     4     5   ar
     5     4     6    1
     6     6     7   ar
     7     7     8   ar
     8     8     9   ar
     9     9    10   ar
    10    10    11   ar
    11    11    12   ar
    12    12    13   ar
    13    13    14   ar
    14    14    15   ar
    15    15    16   ar
    16    16    17   ar
    17    17    18   ar
    18    18    19   ar
    19    19    20   ar
    20    20    21   ar
    21    21    22   ar
    22    22    23   ar
    23    23    24   ar
    24    24    25   ar
    25    25    26   ar
    26    26    27   ar
    27    27    28   ar
    28    28    29   ar
    29    29    30   ar
    30    30    31   ar
    31    31    32   ar
    32     5     1   ar
    33    32     6   ar
    34    27     8   ar
    35    32    28   ar
    36    26    11   ar
    37    20    12   ar
    38    25    21   ar
    39    17    13   ar
    40     1    33    1
    41     2    34    1
    42     5    35    1
    43     7    36    1
    44     9    37    1
    45    18    38    1
    46    19    39    1
    47    29    40    1
    48    31    41    1
