@<TRIPOS>MOLECULE
*****
 45 51 0 0 0
SMALL
GASTEIGER

@<TRIPOS>ATOM
      1 C           7.1333    0.6894   -0.8915 C.ar    1  UNL1       -0.0233
      2 C           6.6250    1.8270   -1.4694 C.ar    1  UNL1        0.0926
      3 O           5.2706    1.8349   -1.3877 O.2     1  UNL1       -0.4629
      4 C           4.8914    0.6930   -0.7361 C.ar    1  UNL1        0.1355
      5 C           6.0161   -0.0458   -0.4235 C.ar    1  UNL1       -0.0159
      6 C           3.4677    0.5263   -0.5567 C.ar    1  UNL1        0.0286
      7 C           2.4807    1.1221   -1.3714 C.ar    1  UNL1       -0.0412
      8 C           1.0523    0.9587   -1.2033 C.ar    1  UNL1        0.0022
      9 C           0.1971    1.7047   -1.9816 C.ar    1  UNL1        0.0360
     10 N          -1.1448    1.7147   -1.8537 N.ar    1  UNL1       -0.2537
     11 C          -1.7637    0.8621   -1.0072 C.ar    1  UNL1        0.0799
     12 C          -3.1606    0.9561   -0.8716 C.ar    1  UNL1        0.0087
     13 C          -3.8700    1.9902   -1.5330 C.ar    1  UNL1       -0.0520
     14 C          -5.2453    2.1629   -1.3986 C.ar    1  UNL1       -0.0611
     15 C          -5.9567    1.2974   -0.5921 C.ar    1  UNL1       -0.0611
     16 C          -5.2887    0.2585    0.0585 C.ar    1  UNL1       -0.0534
     17 C          -3.8863    0.0470   -0.0653 C.ar    1  UNL1       -0.0081
     18 C          -3.1949   -1.0516    0.5274 C.ar    1  UNL1       -0.0095
     19 C          -3.8632   -2.0847    1.2412 C.ar    1  UNL1       -0.0534
     20 C          -3.2106   -3.2250    1.7047 C.ar    1  UNL1       -0.0611
     21 C          -1.8685   -3.3841    1.4371 C.ar    1  UNL1       -0.0611
     22 C          -1.1842   -2.3717    0.7657 C.ar    1  UNL1       -0.0534
     23 C          -1.7885   -1.1528    0.3665 C.ar    1  UNL1       -0.0075
     24 C          -1.0414   -0.0917   -0.2648 C.ar    1  UNL1        0.0171
     25 C           0.4140    0.1016   -0.2520 C.ar    1  UNL1        0.0041
     26 C           1.4396   -0.3675    0.6327 C.ar    1  UNL1        0.0289
     27 C           1.2855   -0.9279    1.8791 C.ar    1  UNL1        0.1000
     28 O           2.4999   -1.1934    2.4391 O.2     1  UNL1       -0.4698
     29 C           3.4529   -0.7269    1.5843 C.ar    1  UNL1        0.1001
     30 C           2.8569   -0.1735    0.4790 C.ar    1  UNL1        0.0311
     31 H           8.1778    0.4197   -0.8229 H       1  UNL1        0.0649
     32 H           7.0687    2.6817   -1.9607 H       1  UNL1        0.1029
     33 H           6.0358   -1.0077    0.0683 H       1  UNL1        0.0655
     34 H           2.8283    1.7742   -2.1772 H       1  UNL1        0.0631
     35 H           0.5699    2.3971   -2.7331 H       1  UNL1        0.0836
     36 H          -3.3316    2.6969   -2.1653 H       1  UNL1        0.0624
     37 H          -5.7468    2.9742   -1.9184 H       1  UNL1        0.0618
     38 H          -7.0296    1.4182   -0.4698 H       1  UNL1        0.0618
     39 H          -5.9029   -0.3952    0.6709 H       1  UNL1        0.0624
     40 H          -4.9328   -2.0395    1.4251 H       1  UNL1        0.0624
     41 H          -3.7642   -3.9981    2.2301 H       1  UNL1        0.0618
     42 H          -1.3497   -4.2915    1.7340 H       1  UNL1        0.0618
     43 H          -0.1469   -2.5787    0.5110 H       1  UNL1        0.0624
     44 H           0.4405   -1.1785    2.5048 H       1  UNL1        0.1036
     45 H           4.4681   -0.8229    1.9412 H       1  UNL1        0.1036
@<TRIPOS>BOND
     1     1     2   ar
     2     2     3   ar
     3     3     4   ar
     4     4     5   ar
     5     4     6    1
     6     6     7   ar
     7     7     8   ar
     8     8     9   ar
     9     9    10   ar
    10    10    11   ar
    11    11    12   ar
    12    12    13   ar
    13    13    14   ar
    14    14    15   ar
    15    15    16   ar
    16    16    17   ar
    17    17    18   ar
    18    18    19   ar
    19    19    20   ar
    20    20    21   ar
    21    21    22   ar
    22    22    23   ar
    23    23    24   ar
    24    24    25   ar
    25    25    26   ar
    26    26    27   ar
    27    27    28   ar
    28    28    29   ar
    29    29    30   ar
    30     5     1   ar
    31    30     6   ar
    32    25     8   ar
    33    30    26   ar
    34    24    11   ar
    35    17    12   ar
    36    23    18   ar
    37     1    31    1
    38     2    32    1
    39     5    33    1
    40     7    34    1
    41     9    35    1
    42    13    36    1
    43    14    37    1
    44    15    38    1
    45    16    39    1
    46    19    40    1
    47    20    41    1
    48    21    42    1
    49    22    43    1
    50    27    44    1
    51    29    45    1
