@<TRIPOS>MOLECULE
*****
 36 41 0 0 0
SMALL
GASTEIGER

@<TRIPOS>ATOM
      1 C          -6.5159    0.4812    0.0325 C.ar    1  UNL1       -0.0233
      2 C          -5.9652   -0.0953    1.1499 C.ar    1  UNL1        0.0926
      3 O          -4.6142   -0.1478    1.0397 O.2     1  UNL1       -0.4615
      4 C          -4.2718    0.4031   -0.1696 C.ar    1  UNL1        0.1509
      5 C          -5.4288    0.8020   -0.8165 C.ar    1  UNL1       -0.0144
      6 C          -2.9143    0.5024   -0.5989 C.ar    1  UNL1        0.0831
      7 C          -2.3582    1.0087   -1.7497 C.ar    1  UNL1       -0.0242
      8 C          -0.9469    0.8519   -1.6514 C.ar    1  UNL1        0.0191
      9 C           0.1088    1.1742   -2.4983 C.ar    1  UNL1        0.0375
     10 N           1.3856    0.9060   -2.1449 N.ar    1  UNL1       -0.2521
     11 C           1.7114    0.3207   -0.9724 C.ar    1  UNL1        0.0994
     12 C           3.1005    0.0852   -0.7056 C.ar    1  UNL1        0.0975
     13 N           4.0286    0.4516   -1.6243 N.ar    1  UNL1       -0.2528
     14 C           5.3459    0.2426   -1.4014 C.ar    1  UNL1        0.0284
     15 C           5.8529   -0.3410   -0.2619 C.ar    1  UNL1       -0.0430
     16 C           4.9505   -0.7349    0.7101 C.ar    1  UNL1       -0.0505
     17 C           3.5651   -0.5265    0.4994 C.ar    1  UNL1        0.0107
     18 C           2.5271   -0.8760    1.4006 C.ar    1  UNL1       -0.0009
     19 C           2.7454   -1.4756    2.6205 C.ar    1  UNL1       -0.0160
     20 S           1.2822   -1.7622    3.4592 S.2     1  UNL1       -0.1038
     21 C           0.3505   -1.0818    2.1863 C.ar    1  UNL1       -0.0159
     22 C           1.1260   -0.6415    1.1380 C.ar    1  UNL1        0.0010
     23 C           0.6665   -0.0382   -0.0505 C.ar    1  UNL1        0.0346
     24 C          -0.6621    0.2440   -0.4248 C.ar    1  UNL1        0.0584
     25 N          -1.8825    0.0485    0.1835 N.ar    1  UNL1       -0.3512
     26 H          -7.5680    0.6497   -0.1488 H       1  UNL1        0.0649
     27 H          -6.3764   -0.4999    2.0643 H       1  UNL1        0.1029
     28 H          -5.4805    1.2706   -1.7893 H       1  UNL1        0.0656
     29 H          -2.8970    1.4469   -2.5795 H       1  UNL1        0.0646
     30 H          -0.0284    1.6463   -3.4646 H       1  UNL1        0.0836
     31 H           6.0014    0.5740   -2.2021 H       1  UNL1        0.0830
     32 H           6.9196   -0.4841   -0.1363 H       1  UNL1        0.0633
     33 H           5.3237   -1.1974    1.6177 H       1  UNL1        0.0625
     34 H           3.6756   -1.7698    3.0850 H       1  UNL1        0.0700
     35 H          -0.7147   -1.0679    2.3310 H       1  UNL1        0.0700
     36 H          -2.0424   -0.3698    1.0853 H       1  UNL1        0.1660
@<TRIPOS>BOND
     1     1     2   ar
     2     2     3   ar
     3     3     4   ar
     4     4     5   ar
     5     4     6    1
     6     6     7   ar
     7     7     8   ar
     8     8     9   ar
     9     9    10   ar
    10    10    11   ar
    11    11    12   ar
    12    12    13   ar
    13    13    14   ar
    14    14    15   ar
    15    15    16   ar
    16    16    17   ar
    17    17    18   ar
    18    18    19   ar
    19    19    20   ar
    20    20    21   ar
    21    21    22   ar
    22    22    23   ar
    23    23    24   ar
    24    24    25   ar
    25     5     1   ar
    26    25     6   ar
    27    24     8   ar
    28    23    11   ar
    29    17    12   ar
    30    22    18   ar
    31     1    26    1
    32     2    27    1
    33     5    28    1
    34     7    29    1
    35     9    30    1
    36    14    31    1
    37    15    32    1
    38    16    33    1
    39    19    34    1
    40    21    35    1
    41    25    36    1
