@<TRIPOS>MOLECULE
*****
 47 54 0 0 0
SMALL
GASTEIGER

@<TRIPOS>ATOM
      1 SI          4.7185    3.4947   -0.5727 Si      1  UNL1        0.0000
      2 C           5.7899    2.0173   -0.2242 C.2     1  UNL1        0.0000
      3 C           5.0468    0.9115   -0.0292 C.ar    1  UNL1        0.0000
      4 C           5.6240   -0.3987    0.1853 C.ar    1  UNL1        0.0000
      5 C           4.8347   -1.4784    0.3054 C.ar    1  UNL1        0.0000
      6 C           3.3728   -1.3426    0.2611 C.ar    1  UNL1        0.0000
      7 C           2.5035   -2.4196    0.4309 C.ar    1  UNL1        0.0000
      8 C           2.8380   -3.7366    0.6546 C.ar    1  UNL1        0.0000
      9 O           1.7117   -4.4916    0.8459 O.2     1  UNL1        0.0000
     10 C           0.6346   -3.6499    0.7411 C.ar    1  UNL1        0.0000
     11 C           1.0960   -2.4049    0.4480 C.ar    1  UNL1        0.0000
     12 C           0.4411   -1.1502    0.2755 C.ar    1  UNL1        0.0000
     13 C           1.2730   -0.0262    0.1755 C.ar    1  UNL1        0.0000
     14 N           0.3923    1.0432    0.2211 N.ar    1  UNL1        0.0000
     15 C          -0.9279    0.6350    0.2471 C.ar    1  UNL1        0.0000
     16 C          -2.1163    1.4082    0.2930 C.ar    1  UNL1        0.0000
     17 C          -3.3906    0.7962    0.2843 C.ar    1  UNL1        0.0000
     18 C          -4.6243    1.5514    0.3629 C.ar    1  UNL1        0.0000
     19 C          -5.8779    1.3321    0.9007 C.ar    1  UNL1        0.0000
     20 C          -6.6444    2.4957    0.6466 C.ar    1  UNL1        0.0000
     21 C          -5.8118    3.3604   -0.0210 C.ar    1  UNL1        0.0000
     22 O          -4.5857    2.8037   -0.1896 O.2     1  UNL1        0.0000
     23 C          -3.3155   -0.5985    0.1698 C.ar    1  UNL1        0.0000
     24 C          -4.3689   -1.4742    0.0014 C.ar    1  UNL1        0.0000
     25 N          -3.8528   -2.7458   -0.1565 N.ar    1  UNL1        0.0000
     26 C          -2.4749   -2.7081   -0.1187 C.ar    1  UNL1        0.0000
     27 C          -2.1515   -1.4061    0.1207 C.ar    1  UNL1        0.0000
     28 C          -0.8845   -0.7526    0.2170 C.ar    1  UNL1        0.0000
     29 C           2.7003   -0.0870    0.1075 C.ar    1  UNL1        0.0000
     30 C           3.5704    1.1055   -0.1006 C.ar    1  UNL1        0.0000
     31 C           3.2192    2.3712   -0.4154 C.2     1  UNL1        0.0000
     32 H           4.7621    4.5098    0.5070 H       1  UNL1        0.0000
     33 H           4.8808    4.0163   -1.9507 H       1  UNL1        0.0000
     34 H           6.8662    2.0867   -0.2295 H       1  UNL1        0.0000
     35 H           6.7039   -0.4976    0.2245 H       1  UNL1        0.0000
     36 H           5.2759   -2.4567    0.4514 H       1  UNL1        0.0000
     37 H           3.7664   -4.2840    0.7327 H       1  UNL1        0.0000
     38 H          -0.3178   -4.1101    0.9408 H       1  UNL1        0.0000
     39 H           0.6681    2.0090    0.2738 H       1  UNL1        0.0000
     40 H          -2.0487    2.4935    0.3408 H       1  UNL1        0.0000
     41 H          -6.1970    0.4444    1.4277 H       1  UNL1        0.0000
     42 H          -7.6721    2.6833    0.9228 H       1  UNL1        0.0000
     43 H          -5.9299    4.3581   -0.4198 H       1  UNL1        0.0000
     44 H          -5.4373   -1.3254   -0.0635 H       1  UNL1        0.0000
     45 H          -4.4044   -3.5753   -0.3338 H       1  UNL1        0.0000
     46 H          -1.9092   -3.6022   -0.3190 H       1  UNL1        0.0000
     47 H           2.2532    2.7948   -0.6080 H       1  UNL1        0.0000
@<TRIPOS>BOND
     1     1     2    1
     2     2     3    2
     3     3     4   ar
     4     4     5   ar
     5     5     6   ar
     6     6     7   ar
     7     7     8   ar
     8     8     9   ar
     9     9    10   ar
    10    10    11   ar
    11    11    12   ar
    12    12    13   ar
    13    13    14   ar
    14    14    15   ar
    15    15    16   ar
    16    16    17   ar
    17    17    18    1
    18    18    19   ar
    19    19    20   ar
    20    20    21   ar
    21    21    22   ar
    22    17    23   ar
    23    23    24   ar
    24    24    25   ar
    25    25    26   ar
    26    26    27   ar
    27    27    28   ar
    28    13    29   ar
    29    29    30   ar
    30    30    31    2
    31    31     1    1
    32    30     3   ar
    33    29     6   ar
    34    11     7   ar
    35    28    12   ar
    36    28    15   ar
    37    22    18   ar
    38    27    23   ar
    39     1    32    1
    40     1    33    1
    41     2    34    1
    42     4    35    1
    43     5    36    1
    44     8    37    1
    45    10    38    1
    46    14    39    1
    47    16    40    1
    48    19    41    1
    49    20    42    1
    50    21    43    1
    51    24    44    1
    52    25    45    1
    53    26    46    1
    54    31    47    1
