@<TRIPOS>MOLECULE
*****
 34 39 0 0 0
SMALL
GASTEIGER

@<TRIPOS>ATOM
      1 C           6.0691   -0.1000   -0.3895 C.ar    1  UNL1       -0.0233
      2 C           5.8622   -0.2806    0.9557 C.ar    1  UNL1        0.0926
      3 O           4.5345   -0.2833    1.2336 O.2     1  UNL1       -0.4629
      4 C           3.8635   -0.1026    0.0579 C.ar    1  UNL1        0.1355
      5 C           4.7821    0.0149   -0.9699 C.ar    1  UNL1       -0.0159
      6 C           2.4148   -0.0709    0.1103 C.ar    1  UNL1        0.0300
      7 C           1.5926    0.1111   -1.0452 C.ar    1  UNL1       -0.0243
      8 C           0.1692    0.1541   -1.0792 C.ar    1  UNL1        0.0759
      9 N          -0.4400    0.3345   -2.2643 N.ar    1  UNL1       -0.2540
     10 C          -1.7976    0.3843   -2.3601 C.ar    1  UNL1        0.0410
     11 C          -2.5856    0.2481   -1.2232 C.ar    1  UNL1        0.0628
     12 C          -3.9571    0.2394   -0.8931 C.ar    1  UNL1        0.0944
     13 N          -5.2200    0.3454   -1.4139 N.ar    1  UNL1       -0.3576
     14 C          -6.1142    0.2247   -0.3683 C.ar    1  UNL1        0.0058
     15 C          -5.4338    0.0415    0.8241 C.ar    1  UNL1       -0.0013
     16 C          -4.0842    0.0585    0.4386 C.ar    1  UNL1        0.1538
     17 O          -2.8698   -0.0565    1.0342 O.2     1  UNL1       -0.4525
     18 C          -1.9675    0.0610    0.0091 C.ar    1  UNL1        0.1490
     19 C          -0.5858    0.0091    0.1156 C.ar    1  UNL1        0.0540
     20 C           0.1927   -0.1697    1.2568 C.ar    1  UNL1        0.0332
     21 C          -0.2129   -0.3383    2.5543 C.ar    1  UNL1        0.1002
     22 O           0.8810   -0.4792    3.3599 O.2     1  UNL1       -0.4698
     23 C           1.9916   -0.3992    2.5655 C.ar    1  UNL1        0.1001
     24 C           1.6233   -0.2083    1.2572 C.ar    1  UNL1        0.0313
     25 H           7.0263   -0.0566   -0.8894 H       1  UNL1        0.0649
     26 H           6.5180   -0.4157    1.8045 H       1  UNL1        0.1029
     27 H           4.5550    0.1658   -2.0158 H       1  UNL1        0.0655
     28 H           2.0877    0.2314   -2.0107 H       1  UNL1        0.0646
     29 H          -2.2019    0.5328   -3.3549 H       1  UNL1        0.0837
     30 H          -5.4259    0.4867   -2.3956 H       1  UNL1        0.1654
     31 H          -7.1776    0.2806   -0.5652 H       1  UNL1        0.0808
     32 H          -5.8524   -0.0840    1.8119 H       1  UNL1        0.0669
     33 H          -1.1693   -0.3821    3.0568 H       1  UNL1        0.1036
     34 H           2.9320   -0.4969    3.0890 H       1  UNL1        0.1036
@<TRIPOS>BOND
     1     1     2   ar
     2     2     3   ar
     3     3     4   ar
     4     4     5   ar
     5     4     6    1
     6     6     7   ar
     7     7     8   ar
     8     8     9   ar
     9     9    10   ar
    10    10    11   ar
    11    11    12   ar
    12    12    13   ar
    13    13    14   ar
    14    14    15   ar
    15    15    16   ar
    16    16    17   ar
    17    17    18   ar
    18    18    19   ar
    19    19    20   ar
    20    20    21   ar
    21    21    22   ar
    22    22    23   ar
    23    23    24   ar
    24     5     1   ar
    25    24     6   ar
    26    19     8   ar
    27    24    20   ar
    28    18    11   ar
    29    16    12   ar
    30     1    25    1
    31     2    26    1
    32     5    27    1
    33     7    28    1
    34    10    29    1
    35    13    30    1
    36    14    31    1
    37    15    32    1
    38    21    33    1
    39    23    34    1
