@<TRIPOS>MOLECULE
*****
 36 41 0 0 0
SMALL
GASTEIGER

@<TRIPOS>ATOM
      1 C          -6.7730   -0.3160   -0.0948 C.ar    1  UNL1       -0.0233
      2 C          -6.4403   -1.6183    0.1834 C.ar    1  UNL1        0.0926
      3 O          -5.0936   -1.7569    0.2512 O.2     1  UNL1       -0.4629
      4 C          -4.5338   -0.5344    0.0156 C.ar    1  UNL1        0.1370
      5 C          -5.5463    0.3846   -0.2034 C.ar    1  UNL1       -0.0158
      6 C          -3.0801   -0.4417    0.0389 C.ar    1  UNL1        0.0474
      7 C          -2.4119    0.7794   -0.1933 C.ar    1  UNL1       -0.0229
      8 C          -1.0258    0.9717   -0.1925 C.ar    1  UNL1        0.0744
      9 N          -0.6293    2.2207   -0.4384 N.ar    1  UNL1       -0.2543
     10 C           0.6939    2.4906   -0.4554 C.ar    1  UNL1        0.0360
     11 C           1.6994    1.5581   -0.2339 C.ar    1  UNL1        0.0016
     12 C           3.0530    1.9327   -0.2716 C.ar    1  UNL1       -0.0434
     13 C           4.0651    0.9899   -0.0477 C.ar    1  UNL1        0.0010
     14 C           5.4229    1.3385   -0.0800 C.ar    1  UNL1       -0.0511
     15 C           6.3900    0.3681    0.1483 C.ar    1  UNL1       -0.0430
     16 C           5.9634   -0.9206    0.4015 C.ar    1  UNL1        0.0283
     17 N           4.6641   -1.2888    0.4395 N.ar    1  UNL1       -0.2550
     18 C           3.7288   -0.3473    0.2181 C.ar    1  UNL1        0.0716
     19 C           2.3801   -0.6918    0.2498 C.ar    1  UNL1       -0.0273
     20 C           1.3201    0.2302    0.0288 C.ar    1  UNL1       -0.0031
     21 C          -0.0958   -0.0766    0.0507 C.ar    1  UNL1        0.0363
     22 C          -0.7134   -1.3655    0.2984 C.ar    1  UNL1        0.1103
     23 N          -0.0706   -2.5191    0.5549 N.ar    1  UNL1       -0.1901
     24 S          -1.2062   -3.6961    0.7644 S.2     1  UNL1        0.1165
     25 N          -2.5821   -2.8191    0.5435 N.ar    1  UNL1       -0.1900
     26 C          -2.2257   -1.5470    0.2917 C.ar    1  UNL1        0.1112
     27 H          -7.7729    0.0788   -0.2053 H       1  UNL1        0.0649
     28 H          -7.0105   -2.5210    0.3528 H       1  UNL1        0.1029
     29 H          -5.4223    1.4369   -0.4166 H       1  UNL1        0.0655
     30 H          -3.0164    1.6665   -0.3938 H       1  UNL1        0.0647
     31 H           0.9281    3.5326   -0.6634 H       1  UNL1        0.0836
     32 H           3.3226    2.9674   -0.4770 H       1  UNL1        0.0631
     33 H           5.7313    2.3610   -0.2817 H       1  UNL1        0.0625
     34 H           7.4463    0.6102    0.1292 H       1  UNL1        0.0633
     35 H           6.6745   -1.7207    0.5872 H       1  UNL1        0.0830
     36 H           2.1664   -1.7368    0.4590 H       1  UNL1        0.0645
@<TRIPOS>BOND
     1     1     2   ar
     2     2     3   ar
     3     3     4   ar
     4     4     5   ar
     5     4     6    1
     6     6     7   ar
     7     7     8   ar
     8     8     9   ar
     9     9    10   ar
    10    10    11   ar
    11    11    12   ar
    12    12    13   ar
    13    13    14   ar
    14    14    15   ar
    15    15    16   ar
    16    16    17   ar
    17    17    18   ar
    18    18    19   ar
    19    19    20   ar
    20    20    21   ar
    21    21    22   ar
    22    22    23   ar
    23    23    24   ar
    24    24    25   ar
    25    25    26   ar
    26     5     1   ar
    27    26     6   ar
    28    21     8   ar
    29    26    22   ar
    30    20    11   ar
    31    18    13   ar
    32     1    27    1
    33     2    28    1
    34     5    29    1
    35     7    30    1
    36    10    31    1
    37    12    32    1
    38    14    33    1
    39    15    34    1
    40    16    35    1
    41    19    36    1
