@<TRIPOS>MOLECULE
*****
 40 45 0 0 0
SMALL
GASTEIGER

@<TRIPOS>ATOM
      1 C           6.4210   -0.8918   -0.1932 C.ar    1  UNL1       -0.0233
      2 C           6.0744   -0.5933    1.1020 C.ar    1  UNL1        0.0926
      3 O           4.7391   -0.3703    1.1966 O.2     1  UNL1       -0.4629
      4 C           4.2096   -0.5165   -0.0546 C.ar    1  UNL1        0.1355
      5 C           5.2179   -0.8510   -0.9391 C.ar    1  UNL1       -0.0159
      6 C           2.7790   -0.3522   -0.1900 C.ar    1  UNL1        0.0284
      7 C           2.0116   -0.9583   -1.2111 C.ar    1  UNL1       -0.0244
      8 C           0.6113   -0.8229   -1.4054 C.ar    1  UNL1        0.0729
      9 N           0.1466   -1.3977   -2.5120 N.ar    1  UNL1       -0.2543
     10 C          -1.1593   -1.2426   -2.8128 C.ar    1  UNL1        0.0360
     11 C          -2.1103   -0.6377   -1.9981 C.ar    1  UNL1        0.0014
     12 C          -3.4354   -0.5436   -2.4399 C.ar    1  UNL1       -0.0520
     13 C          -4.4195   -0.0128   -1.6184 C.ar    1  UNL1       -0.0534
     14 C          -4.1211    0.3317   -0.3027 C.ar    1  UNL1       -0.0173
     15 C          -5.1630    0.7438    0.5464 C.ar    1  UNL1       -0.0540
     16 C          -4.9359    0.9766    1.8985 C.ar    1  UNL1       -0.0612
     17 C          -3.6697    0.7670    2.4176 C.ar    1  UNL1       -0.0611
     18 C          -2.6264    0.3778    1.5707 C.ar    1  UNL1       -0.0534
     19 C          -2.7875    0.2150    0.1745 C.ar    1  UNL1       -0.0095
     20 C          -1.7131   -0.1469   -0.7382 C.ar    1  UNL1        0.0011
     21 C          -0.2638   -0.1027   -0.5200 C.ar    1  UNL1        0.0178
     22 C           0.5460    0.6160    0.4203 C.ar    1  UNL1        0.0098
     23 C           0.1708    1.6882    1.1988 C.ar    1  UNL1        0.0101
     24 N           1.2692    2.1016    1.9173 N.ar    1  UNL1       -0.3659
     25 C           2.3744    1.3846    1.5320 C.ar    1  UNL1        0.0101
     26 C           1.9694    0.4851    0.5742 C.ar    1  UNL1        0.0108
     27 H           7.4147   -1.1164   -0.5537 H       1  UNL1        0.0649
     28 H           6.6282   -0.5066    2.0262 H       1  UNL1        0.1029
     29 H           5.0983   -1.0388   -1.9969 H       1  UNL1        0.0655
     30 H           2.5363   -1.5820   -1.9376 H       1  UNL1        0.0646
     31 H          -1.4359   -1.6661   -3.7763 H       1  UNL1        0.0836
     32 H          -3.7150   -0.8847   -3.4350 H       1  UNL1        0.0624
     33 H          -5.4368    0.0594   -1.9969 H       1  UNL1        0.0624
     34 H          -6.1751    0.8575    0.1630 H       1  UNL1        0.0624
     35 H          -5.7530    1.2790    2.5473 H       1  UNL1        0.0618
     36 H          -3.4869    0.8878    3.4820 H       1  UNL1        0.0618
     37 H          -1.6724    0.1496    2.0390 H       1  UNL1        0.0624
     38 H          -0.7617    2.2247    1.3034 H       1  UNL1        0.0813
     39 H           1.2767    2.8681    2.5779 H       1  UNL1        0.1648
     40 H           3.3471    1.6177    1.9442 H       1  UNL1        0.0813
@<TRIPOS>BOND
     1     1     2   ar
     2     2     3   ar
     3     3     4   ar
     4     4     5   ar
     5     4     6    1
     6     6     7   ar
     7     7     8   ar
     8     8     9   ar
     9     9    10   ar
    10    10    11   ar
    11    11    12   ar
    12    12    13   ar
    13    13    14   ar
    14    14    15   ar
    15    15    16   ar
    16    16    17   ar
    17    17    18   ar
    18    18    19   ar
    19    19    20   ar
    20    20    21   ar
    21    21    22   ar
    22    22    23   ar
    23    23    24   ar
    24    24    25   ar
    25    25    26   ar
    26     5     1   ar
    27    26     6   ar
    28    21     8   ar
    29    26    22   ar
    30    20    11   ar
    31    19    14   ar
    32     1    27    1
    33     2    28    1
    34     5    29    1
    35     7    30    1
    36    10    31    1
    37    12    32    1
    38    13    33    1
    39    15    34    1
    40    16    35    1
    41    17    36    1
    42    18    37    1
    43    23    38    1
    44    24    39    1
    45    25    40    1
