@<TRIPOS>MOLECULE
*****
 42 48 0 0 0
SMALL
GASTEIGER

@<TRIPOS>ATOM
      1 C           6.8634    2.1111   -0.7559 C.ar    1  UNL1       -0.0233
      2 C           7.1973    0.8592   -0.3026 C.ar    1  UNL1        0.0926
      3 O           6.0792    0.1309   -0.0600 O.2     1  UNL1       -0.4629
      4 C           4.9993    0.9123   -0.3569 C.ar    1  UNL1        0.1355
      5 C           5.4478    2.1475   -0.7916 C.ar    1  UNL1       -0.0159
      6 C           3.6772    0.3379   -0.1725 C.ar    1  UNL1        0.0290
      7 C           2.4881    1.0620   -0.4507 C.ar    1  UNL1       -0.0360
      8 C           1.1849    0.5027   -0.2715 C.ar    1  UNL1        0.0234
      9 S          -0.3370    1.2322   -0.5569 S.2     1  UNL1       -0.0860
     10 C          -1.2677   -0.1616   -0.0731 C.ar    1  UNL1        0.0470
     11 C          -0.3852   -1.1882    0.3084 C.ar    1  UNL1        0.0870
     12 N          -0.8009   -2.4058    0.7373 N.ar    1  UNL1       -0.2532
     13 C          -2.1253   -2.5859    0.7806 C.ar    1  UNL1        0.0360
     14 C          -3.0881   -1.6500    0.4302 C.ar    1  UNL1        0.0019
     15 C          -4.4335   -2.0056    0.5359 C.ar    1  UNL1       -0.0520
     16 C          -5.4339   -1.1051    0.1977 C.ar    1  UNL1       -0.0534
     17 C          -5.1233    0.1765   -0.2559 C.ar    1  UNL1       -0.0172
     18 C          -6.1875    1.0361   -0.5806 C.ar    1  UNL1       -0.0540
     19 C          -5.9580    2.3269   -1.0387 C.ar    1  UNL1       -0.0612
     20 C          -4.6559    2.7695   -1.1762 C.ar    1  UNL1       -0.0611
     21 C          -3.5900    1.9194   -0.8550 C.ar    1  UNL1       -0.0534
     22 C          -3.7668    0.5905   -0.3823 C.ar    1  UNL1       -0.0090
     23 C          -2.7089   -0.3580   -0.0260 C.ar    1  UNL1        0.0071
     24 C           0.9591   -0.7777    0.1830 C.ar    1  UNL1        0.0259
     25 C           2.1282   -1.5431    0.4757 C.ar    1  UNL1        0.0308
     26 C           2.2551   -2.8168    0.9334 C.ar    1  UNL1        0.1001
     27 O           3.5935   -3.0807    1.0493 O.2     1  UNL1       -0.4698
     28 C           4.2704   -1.9524    0.6564 C.ar    1  UNL1        0.1001
     29 C           3.3940   -0.9544    0.2853 C.ar    1  UNL1        0.0312
     30 H           7.5526    2.8984   -1.0265 H       1  UNL1        0.0649
     31 H           8.1344    0.3564   -0.1077 H       1  UNL1        0.1029
     32 H           4.8308    2.9797   -1.0993 H       1  UNL1        0.0655
     33 H           2.5582    2.0852   -0.8157 H       1  UNL1        0.0636
     34 H          -2.4137   -3.5761    1.1302 H       1  UNL1        0.0836
     35 H          -4.7252   -2.9948    0.8852 H       1  UNL1        0.0624
     36 H          -6.4709   -1.4226    0.2946 H       1  UNL1        0.0624
     37 H          -7.2185    0.7021   -0.4776 H       1  UNL1        0.0624
     38 H          -6.7909    2.9790   -1.2854 H       1  UNL1        0.0618
     39 H          -4.4560    3.7766   -1.5334 H       1  UNL1        0.0618
     40 H          -2.6062    2.3457   -0.9917 H       1  UNL1        0.0624
     41 H           1.5838   -3.6174    1.2091 H       1  UNL1        0.1036
     42 H           5.3463   -2.0415    0.7056 H       1  UNL1        0.1036
@<TRIPOS>BOND
     1     1     2   ar
     2     2     3   ar
     3     3     4   ar
     4     4     5   ar
     5     4     6    1
     6     6     7   ar
     7     7     8   ar
     8     8     9   ar
     9     9    10   ar
    10    10    11   ar
    11    11    12   ar
    12    12    13   ar
    13    13    14   ar
    14    14    15   ar
    15    15    16   ar
    16    16    17   ar
    17    17    18   ar
    18    18    19   ar
    19    19    20   ar
    20    20    21   ar
    21    21    22   ar
    22    22    23   ar
    23    11    24   ar
    24    24    25   ar
    25    25    26   ar
    26    26    27   ar
    27    27    28   ar
    28    28    29   ar
    29     5     1   ar
    30    29     6   ar
    31    24     8   ar
    32    29    25   ar
    33    23    10   ar
    34    23    14   ar
    35    22    17   ar
    36     1    30    1
    37     2    31    1
    38     5    32    1
    39     7    33    1
    40    13    34    1
    41    15    35    1
    42    16    36    1
    43    18    37    1
    44    19    38    1
    45    20    39    1
    46    21    40    1
    47    26    41    1
    48    28    42    1
