@<TRIPOS>MOLECULE
*****
 24 27 0 0 0
SMALL
GASTEIGER

@<TRIPOS>ATOM
      1 C          -4.7619    0.8223   -0.4513 C.ar    1  UNL1       -0.0232
      2 C          -4.9305   -0.1081    0.5441 C.ar    1  UNL1        0.0927
      3 O          -3.7301   -0.5926    0.9500 O.2     1  UNL1       -0.4598
      4 C          -2.7565    0.0295    0.2094 C.ar    1  UNL1        0.1697
      5 C          -3.3657    0.9118   -0.6674 C.ar    1  UNL1       -0.0128
      6 C          -1.3569   -0.2412    0.3726 C.ar    1  UNL1        0.1717
      7 C          -0.7799   -1.1299    1.2591 C.ar    1  UNL1        0.0017
      8 C           0.6098   -1.0179    1.0197 C.ar    1  UNL1        0.0592
      9 S           2.1176   -1.6597    1.5648 S.2     1  UNL1       -0.0848
     10 C           2.9771   -0.6550    0.4307 C.ar    1  UNL1        0.0264
     11 C           4.3657   -0.6002    0.2518 C.ar    1  UNL1       -0.0291
     12 C           4.8223    0.2790   -0.7148 C.ar    1  UNL1        0.0286
     13 N           4.0305    1.0635   -1.4727 N.ar    1  UNL1       -0.2625
     14 C           2.6893    1.0064   -1.2954 C.ar    1  UNL1        0.0393
     15 C           2.1318    0.1483   -0.3423 C.ar    1  UNL1        0.0502
     16 C           0.7970   -0.1056    0.0418 C.ar    1  UNL1        0.1520
     17 O          -0.3993    0.3939   -0.3804 O.2     1  UNL1       -0.4505
     18 H          -5.5456    1.3676   -0.9578 H       1  UNL1        0.0649
     19 H          -5.7944   -0.5166    1.0500 H       1  UNL1        0.1029
     20 H          -2.8512    1.5438   -1.3786 H       1  UNL1        0.0656
     21 H          -1.2921   -1.7620    1.9700 H       1  UNL1        0.0668
     22 H           5.0459   -1.2092    0.8344 H       1  UNL1        0.0644
     23 H           5.8871    0.3777   -0.9118 H       1  UNL1        0.0830
     24 H           2.0898    1.6543   -1.9261 H       1  UNL1        0.0837
@<TRIPOS>BOND
     1     1     2   ar
     2     2     3   ar
     3     3     4   ar
     4     4     5   ar
     5     4     6    1
     6     6     7   ar
     7     7     8   ar
     8     8     9   ar
     9     9    10   ar
    10    10    11   ar
    11    11    12   ar
    12    12    13   ar
    13    13    14   ar
    14    14    15   ar
    15    15    16   ar
    16    16    17   ar
    17     5     1   ar
    18    17     6   ar
    19    16     8   ar
    20    15    10   ar
    21     1    18    1
    22     2    19    1
    23     5    20    1
    24     7    21    1
    25    11    22    1
    26    12    23    1
    27    14    24    1
