@<TRIPOS>MOLECULE
*****
 47 52 0 0 0
SMALL
GASTEIGER

@<TRIPOS>ATOM
      1 C           7.4685    1.4609    1.2186 C.ar    1  UNL1       -0.0233
      2 C           6.4092    2.0768    1.8371 C.ar    1  UNL1        0.0926
      3 O           5.2350    1.5908    1.3630 O.2     1  UNL1       -0.4615
      4 C           5.5266    0.6404    0.4170 C.ar    1  UNL1        0.1509
      5 C           6.9028    0.5378    0.3058 C.ar    1  UNL1       -0.0144
      6 C           4.5078   -0.0730   -0.2841 C.ar    1  UNL1        0.0825
      7 C           4.5856   -1.0547   -1.2505 C.ar    1  UNL1       -0.0328
      8 C           3.2599   -1.4151   -1.6021 C.ar    1  UNL1       -0.0357
      9 C           2.3964   -0.6572   -0.8326 C.ar    1  UNL1        0.0476
     10 N           3.1760    0.1663   -0.0521 N.ar    1  UNL1       -0.3517
     11 C           0.9332   -0.6112   -0.8033 C.ar    1  UNL1        0.0060
     12 C           0.2873   -0.1267   -1.9458 C.ar    1  UNL1       -0.0515
     13 C          -1.0974   -0.0151   -1.9787 C.ar    1  UNL1       -0.0528
     14 C          -1.8771   -0.3831   -0.8716 C.ar    1  UNL1       -0.0095
     15 C          -3.3250   -0.2318   -0.9806 C.ar    1  UNL1       -0.0082
     16 C          -4.1952   -1.1797   -1.5825 C.ar    1  UNL1       -0.0534
     17 C          -5.6228   -1.0178   -1.6902 C.ar    1  UNL1       -0.0605
     18 C          -6.3342    0.1071   -1.2122 C.ar    1  UNL1       -0.0526
     19 C          -5.4653    1.0215   -0.6321 C.ar    1  UNL1       -0.0000
     20 C          -5.8159    2.2208   -0.0683 C.ar    1  UNL1        0.0094
     21 N          -4.6510    2.8060    0.3837 N.ar    1  UNL1       -0.3659
     22 C          -3.5698    1.9929    0.1137 C.ar    1  UNL1        0.0100
     23 C          -4.0507    0.8725   -0.5194 C.ar    1  UNL1        0.0071
     24 C          -1.2421   -0.8937    0.2972 C.ar    1  UNL1       -0.0095
     25 C          -1.9756   -1.2950    1.4407 C.ar    1  UNL1       -0.0534
     26 C          -1.3549   -1.8085    2.5792 C.ar    1  UNL1       -0.0611
     27 C           0.0223   -1.9436    2.6059 C.ar    1  UNL1       -0.0611
     28 C           0.7744   -1.5564    1.4970 C.ar    1  UNL1       -0.0534
     29 C           0.1760   -1.0169    0.3305 C.ar    1  UNL1       -0.0082
     30 H           8.5163    1.6522    1.4011 H       1  UNL1        0.0649
     31 H           6.3259    2.8416    2.5966 H       1  UNL1        0.1029
     32 H           7.4344   -0.1277   -0.3595 H       1  UNL1        0.0656
     33 H           5.4943   -1.4713   -1.6647 H       1  UNL1        0.0640
     34 H           2.9639   -2.1571   -2.3329 H       1  UNL1        0.0639
     35 H           2.8246    0.8478    0.6077 H       1  UNL1        0.1660
     36 H           0.8651    0.1805   -2.8149 H       1  UNL1        0.0624
     37 H          -1.5759    0.3738   -2.8758 H       1  UNL1        0.0624
     38 H          -3.7601   -2.0943   -1.9884 H       1  UNL1        0.0624
     39 H          -6.1875   -1.8167   -2.1722 H       1  UNL1        0.0618
     40 H          -7.4050    0.2186   -1.2980 H       1  UNL1        0.0624
     41 H          -6.7683    2.7170    0.0580 H       1  UNL1        0.0813
     42 H          -4.5962    3.7030    0.8481 H       1  UNL1        0.1648
     43 H          -2.5703    2.2912    0.4009 H       1  UNL1        0.0813
     44 H          -3.0613   -1.2122    1.4548 H       1  UNL1        0.0624
     45 H          -1.9529   -2.1075    3.4355 H       1  UNL1        0.0618
     46 H           0.5165   -2.3548    3.4819 H       1  UNL1        0.0618
     47 H           1.8522   -1.6984    1.5487 H       1  UNL1        0.0624
@<TRIPOS>BOND
     1     1     2   ar
     2     2     3   ar
     3     3     4   ar
     4     4     5   ar
     5     4     6    1
     6     6     7   ar
     7     7     8   ar
     8     8     9   ar
     9     9    10   ar
    10     9    11    1
    11    11    12   ar
    12    12    13   ar
    13    13    14   ar
    14    14    15    1
    15    15    16   ar
    16    16    17   ar
    17    17    18   ar
    18    18    19   ar
    19    19    20   ar
    20    20    21   ar
    21    21    22   ar
    22    22    23   ar
    23    14    24   ar
    24    24    25   ar
    25    25    26   ar
    26    26    27   ar
    27    27    28   ar
    28    28    29   ar
    29     5     1   ar
    30    10     6   ar
    31    29    11   ar
    32    23    15   ar
    33    29    24   ar
    34    23    19   ar
    35     1    30    1
    36     2    31    1
    37     5    32    1
    38     7    33    1
    39     8    34    1
    40    10    35    1
    41    12    36    1
    42    13    37    1
    43    16    38    1
    44    17    39    1
    45    18    40    1
    46    20    41    1
    47    21    42    1
    48    22    43    1
    49    25    44    1
    50    26    45    1
    51    27    46    1
    52    28    47    1
