@<TRIPOS>MOLECULE
*****
 43 49 0 0 0
SMALL
GASTEIGER

@<TRIPOS>ATOM
      1 C           7.6615    0.1988   -0.9383 C.ar    1  UNL1       -0.0233
      2 C           7.1842    1.2961   -1.6123 C.ar    1  UNL1        0.0926
      3 O           5.8341    1.3701   -1.5003 O.2     1  UNL1       -0.4629
      4 C           5.4236    0.2994   -0.7530 C.ar    1  UNL1        0.1355
      5 C           6.5279   -0.4418   -0.3792 C.ar    1  UNL1       -0.0159
      6 C           3.9983    0.2144   -0.5282 C.ar    1  UNL1        0.0280
      7 C           3.1304    1.3383   -0.4958 C.ar    1  UNL1       -0.0498
      8 C           1.7142    1.2682   -0.2510 C.ar    1  UNL1       -0.0521
      9 C           1.0085    0.0616   -0.0280 C.ar    1  UNL1        0.0016
     10 C          -0.4194   -0.0100    0.2209 C.ar    1  UNL1        0.0481
     11 S          -1.4401   -0.8432   -0.8826 S.2     1  UNL1       -0.0833
     12 C          -2.8715   -0.4957    0.0111 C.ar    1  UNL1        0.0545
     13 C          -4.1569   -0.9644   -0.4339 C.ar    1  UNL1        0.0363
     14 S          -4.4456   -2.6178   -0.8557 S.2     1  UNL1       -0.0943
     15 C          -6.1031   -2.3443   -1.2345 C.ar    1  UNL1       -0.0094
     16 C          -6.4232   -1.0317   -1.0424 C.ar    1  UNL1        0.0269
     17 S          -7.9787   -0.1535   -1.2729 S.2     1  UNL1       -0.0961
     18 C          -7.0811    1.2620   -0.7429 C.ar    1  UNL1       -0.0231
     19 C          -5.7324    1.0585   -0.4288 C.ar    1  UNL1       -0.0459
     20 C          -5.3268   -0.2944   -0.5948 C.ar    1  UNL1        0.0045
     21 C          -2.5753    0.2731    1.1172 C.ar    1  UNL1        0.1050
     22 N          -3.5084    0.7135    2.0136 N.ar    1  UNL1       -0.2507
     23 C          -2.9329    1.4401    3.0081 C.ar    1  UNL1        0.0464
     24 C          -1.5669    1.7181    3.1143 C.ar    1  UNL1        0.0464
     25 N          -0.6142    1.2999    2.2398 N.ar    1  UNL1       -0.2508
     26 C          -1.1615    0.5574    1.2327 C.ar    1  UNL1        0.1045
     27 C           1.8708   -1.0390   -0.0607 C.ar    1  UNL1        0.0288
     28 C           1.5751   -2.3639    0.1363 C.ar    1  UNL1        0.1000
     29 O           2.7071   -3.1160   -0.0005 O.2     1  UNL1       -0.4698
     30 C           3.7391   -2.2631   -0.2754 C.ar    1  UNL1        0.1001
     31 C           3.2859   -0.9682   -0.2976 C.ar    1  UNL1        0.0311
     32 H           8.6972   -0.0984   -0.8536 H       1  UNL1        0.0649
     33 H           7.6490    2.0842   -2.1879 H       1  UNL1        0.1029
     34 H           6.5272   -1.3289    0.2372 H       1  UNL1        0.0655
     35 H           3.5602    2.3292   -0.6550 H       1  UNL1        0.0625
     36 H           1.1605    2.2084   -0.2370 H       1  UNL1        0.0624
     37 H          -6.7589   -3.1340   -1.5741 H       1  UNL1        0.0705
     38 H          -7.6221    2.1970   -0.6920 H       1  UNL1        0.0694
     39 H          -5.0889    1.8615   -0.0904 H       1  UNL1        0.0629
     40 H          -3.6249    1.8144    3.7577 H       1  UNL1        0.0845
     41 H          -1.1940    2.3097    3.9460 H       1  UNL1        0.0845
     42 H           0.6769   -2.9222    0.3596 H       1  UNL1        0.1036
     43 H           4.6950   -2.7435   -0.4227 H       1  UNL1        0.1036
@<TRIPOS>BOND
     1     1     2   ar
     2     2     3   ar
     3     3     4   ar
     4     4     5   ar
     5     4     6    1
     6     6     7   ar
     7     7     8   ar
     8     8     9   ar
     9     9    10    1
    10    10    11   ar
    11    11    12   ar
    12    12    13    1
    13    13    14   ar
    14    14    15   ar
    15    15    16   ar
    16    16    17   ar
    17    17    18   ar
    18    18    19   ar
    19    19    20   ar
    20    12    21   ar
    21    21    22   ar
    22    22    23   ar
    23    23    24   ar
    24    24    25   ar
    25    25    26   ar
    26     9    27   ar
    27    27    28   ar
    28    28    29   ar
    29    29    30   ar
    30    30    31   ar
    31     5     1   ar
    32    31     6   ar
    33    26    10   ar
    34    31    27   ar
    35    20    13   ar
    36    26    21   ar
    37    20    16   ar
    38     1    32    1
    39     2    33    1
    40     5    34    1
    41     7    35    1
    42     8    36    1
    43    15    37    1
    44    18    38    1
    45    19    39    1
    46    23    40    1
    47    24    41    1
    48    28    42    1
    49    30    43    1
