@<TRIPOS>MOLECULE
*****
 41 46 0 0 0
SMALL
GASTEIGER

@<TRIPOS>ATOM
      1 C           8.0227   -0.2620    0.4438 C.ar    1  UNL1       -0.0233
      2 C           7.6824   -0.4026   -0.8793 C.ar    1  UNL1        0.0926
      3 O           6.3352   -0.3593   -1.0298 O.2     1  UNL1       -0.4614
      4 C           5.7848   -0.1875    0.2129 C.ar    1  UNL1        0.1529
      5 C           6.8018   -0.1233    1.1498 C.ar    1  UNL1       -0.0144
      6 C           4.3270   -0.1132    0.2803 C.ar    1  UNL1        0.1060
      7 C           3.6581    0.0511    1.4888 C.ar    1  UNL1       -0.0321
      8 C           2.2627    0.1136    1.4880 C.ar    1  UNL1       -0.0504
      9 C           1.5524    0.0167    0.2878 C.ar    1  UNL1        0.0009
     10 C           2.3146   -0.1494   -0.8662 C.ar    1  UNL1        0.0361
     11 N           3.6671   -0.2152   -0.8974 N.ar    1  UNL1       -0.2513
     12 C           0.0999    0.0638    0.2423 C.ar    1  UNL1       -0.0057
     13 C          -0.7262   -0.9684   -0.2842 C.ar    1  UNL1       -0.0527
     14 C          -2.1654   -0.9247   -0.3257 C.ar    1  UNL1       -0.0522
     15 C          -2.9365    0.1576    0.1602 C.ar    1  UNL1        0.0000
     16 C          -4.3790    0.2180    0.1083 C.ar    1  UNL1        0.0282
     17 S          -5.3208    0.1858    1.5548 S.2     1  UNL1       -0.0949
     18 C          -6.8193    0.2517    0.7032 C.ar    1  UNL1       -0.0094
     19 C          -6.5989    0.2837   -0.6438 C.ar    1  UNL1        0.0269
     20 S          -7.7448    0.3476   -2.0305 S.2     1  UNL1       -0.0961
     21 C          -6.2960    0.3432   -3.0297 C.ar    1  UNL1       -0.0231
     22 C          -5.0732    0.2972   -2.3494 C.ar    1  UNL1       -0.0459
     23 C          -5.2371    0.2596   -0.9399 C.ar    1  UNL1        0.0040
     24 C          -2.1192    1.1737    0.6596 C.ar    1  UNL1        0.0286
     25 C          -2.4834    2.3937    1.1698 C.ar    1  UNL1        0.1000
     26 O          -1.3665    3.1000    1.5205 O.2     1  UNL1       -0.4698
     27 C          -0.2786    2.3274    1.2235 C.ar    1  UNL1        0.1000
     28 C          -0.6885    1.1280    0.6981 C.ar    1  UNL1        0.0282
     29 H           9.0250   -0.2597    0.8480 H       1  UNL1        0.0649
     30 H           8.2477   -0.5356   -1.7910 H       1  UNL1        0.1029
     31 H           6.6823    0.0080    2.2155 H       1  UNL1        0.0656
     32 H           4.1974    0.1259    2.4264 H       1  UNL1        0.0640
     33 H           1.7359    0.2268    2.4332 H       1  UNL1        0.0625
     34 H           1.8439   -0.2313   -1.8433 H       1  UNL1        0.0836
     35 H          -0.2472   -1.8683   -0.6767 H       1  UNL1        0.0624
     36 H          -2.6833   -1.7864   -0.7502 H       1  UNL1        0.0624
     37 H          -7.7742    0.2599    1.2103 H       1  UNL1        0.0705
     38 H          -6.4390    0.3788   -4.1013 H       1  UNL1        0.0694
     39 H          -4.1205    0.2962   -2.8652 H       1  UNL1        0.0629
     40 H          -3.4230    2.9001    1.3412 H       1  UNL1        0.1036
     41 H           0.6796    2.7800    1.4372 H       1  UNL1        0.1036
@<TRIPOS>BOND
     1     1     2   ar
     2     2     3   ar
     3     3     4   ar
     4     4     5   ar
     5     4     6    1
     6     6     7   ar
     7     7     8   ar
     8     8     9   ar
     9     9    10   ar
    10    10    11   ar
    11     9    12    1
    12    12    13   ar
    13    13    14   ar
    14    14    15   ar
    15    15    16    1
    16    16    17   ar
    17    17    18   ar
    18    18    19   ar
    19    19    20   ar
    20    20    21   ar
    21    21    22   ar
    22    22    23   ar
    23    15    24   ar
    24    24    25   ar
    25    25    26   ar
    26    26    27   ar
    27    27    28   ar
    28     5     1   ar
    29    11     6   ar
    30    28    12   ar
    31    23    16   ar
    32    28    24   ar
    33    23    19   ar
    34     1    29    1
    35     2    30    1
    36     5    31    1
    37     7    32    1
    38     8    33    1
    39    10    34    1
    40    13    35    1
    41    14    36    1
    42    18    37    1
    43    21    38    1
    44    22    39    1
    45    25    40    1
    46    27    41    1
