@<TRIPOS>MOLECULE
*****
 39 44 0 0 0
SMALL
GASTEIGER

@<TRIPOS>ATOM
      1 C           8.1336   -0.4887   -0.2428 C.ar    1  UNL1       -0.0233
      2 C           7.9478    0.6695    0.4715 C.ar    1  UNL1        0.0926
      3 O           6.6248    0.9167    0.6378 O.2     1  UNL1       -0.4614
      4 C           5.9336   -0.0954    0.0241 C.ar    1  UNL1        0.1529
      5 C           6.8374   -0.9847   -0.5308 C.ar    1  UNL1       -0.0144
      6 C           4.4757   -0.0266    0.0863 C.ar    1  UNL1        0.1060
      7 C           3.6707   -0.9956   -0.4971 C.ar    1  UNL1       -0.0320
      8 C           2.2821   -0.8703   -0.3946 C.ar    1  UNL1       -0.0489
      9 C           1.6951    0.2136    0.2799 C.ar    1  UNL1        0.0206
     10 C           2.5988    1.1216    0.8311 C.ar    1  UNL1        0.0376
     11 N           3.9527    1.0300    0.7499 N.ar    1  UNL1       -0.2512
     12 C           0.2362    0.3284    0.3964 C.ar    1  UNL1        0.1005
     13 N          -0.5097   -0.8152    0.2029 N.ar    1  UNL1       -0.2520
     14 C          -1.8784   -0.8160    0.2957 C.ar    1  UNL1        0.0387
     15 C          -2.7090    0.2613    0.6006 C.ar    1  UNL1        0.0371
     16 C          -4.1590    0.1612    0.6804 C.ar    1  UNL1        0.0503
     17 S          -4.9978    0.7082    2.0884 S.2     1  UNL1       -0.0922
     18 C          -6.5312    0.2597    1.4632 C.ar    1  UNL1        0.0038
     19 C          -6.4137   -0.3186    0.2260 C.ar    1  UNL1        0.0968
     20 N          -7.4807   -0.7785   -0.4843 N.ar    1  UNL1       -0.2514
     21 C          -7.0769   -1.2958   -1.6783 C.ar    1  UNL1        0.0464
     22 C          -5.7488   -1.3661   -2.1194 C.ar    1  UNL1        0.0464
     23 N          -4.6639   -0.9241   -1.4212 N.ar    1  UNL1       -0.2508
     24 C          -5.0443   -0.3837   -0.2251 C.ar    1  UNL1        0.1040
     25 C          -2.0071    1.4787    0.7743 C.ar    1  UNL1        0.1117
     26 N          -2.5417    2.6893    1.0214 N.ar    1  UNL1       -0.1900
     27 S          -1.2935    3.7670    1.1236 S.2     1  UNL1        0.1166
     28 N          -0.0058    2.7659    0.8550 N.ar    1  UNL1       -0.1886
     29 C          -0.4923    1.5243    0.6715 C.ar    1  UNL1        0.1264
     30 H           9.0842   -0.9218   -0.5189 H       1  UNL1        0.0649
     31 H           8.6155    1.3969    0.9127 H       1  UNL1        0.1029
     32 H           6.5948   -1.8853   -1.0773 H       1  UNL1        0.0656
     33 H           4.0948   -1.8439   -1.0239 H       1  UNL1        0.0640
     34 H           1.6543   -1.6358   -0.8508 H       1  UNL1        0.0625
     35 H           2.2731    1.9901    1.3983 H       1  UNL1        0.0836
     36 H          -2.3175   -1.7955    0.0996 H       1  UNL1        0.0837
     37 H          -7.4335    0.4339    2.0305 H       1  UNL1        0.0715
     38 H          -7.8799   -1.6731   -2.3060 H       1  UNL1        0.0845
     39 H          -5.5207   -1.8016   -3.0904 H       1  UNL1        0.0845
@<TRIPOS>BOND
     1     1     2   ar
     2     2     3   ar
     3     3     4   ar
     4     4     5   ar
     5     4     6    1
     6     6     7   ar
     7     7     8   ar
     8     8     9   ar
     9     9    10   ar
    10    10    11   ar
    11     9    12    1
    12    12    13   ar
    13    13    14   ar
    14    14    15   ar
    15    15    16    1
    16    16    17   ar
    17    17    18   ar
    18    18    19   ar
    19    19    20   ar
    20    20    21   ar
    21    21    22   ar
    22    22    23   ar
    23    23    24   ar
    24    15    25   ar
    25    25    26   ar
    26    26    27   ar
    27    27    28   ar
    28    28    29   ar
    29     5     1   ar
    30    11     6   ar
    31    29    12   ar
    32    24    16   ar
    33    29    25   ar
    34    24    19   ar
    35     1    30    1
    36     2    31    1
    37     5    32    1
    38     7    33    1
    39     8    34    1
    40    10    35    1
    41    14    36    1
    42    18    37    1
    43    21    38    1
    44    22    39    1
