@<TRIPOS>MOLECULE
*****
 33 37 0 0 0
SMALL
GASTEIGER

@<TRIPOS>ATOM
      1 C          -7.2727    0.1218   -0.2830 C.ar    1  UNL1       -0.0233
      2 C          -6.9293    0.8553    0.8240 C.ar    1  UNL1        0.0926
      3 O          -5.5820    0.9029    0.9609 O.2     1  UNL1       -0.4624
      4 C          -5.0213    0.1894   -0.0718 C.ar    1  UNL1        0.1413
      5 C          -6.0515   -0.3061   -0.8589 C.ar    1  UNL1       -0.0154
      6 C          -3.6000    0.0309   -0.2375 C.ar    1  UNL1        0.0551
      7 C          -2.9355   -0.6601   -1.2318 C.ar    1  UNL1       -0.0433
      8 C          -1.5177   -0.6047   -1.0797 C.ar    1  UNL1       -0.0433
      9 C          -1.1316    0.1266    0.0259 C.ar    1  UNL1        0.0551
     10 S          -2.4930    0.7357    0.8643 S.2     1  UNL1       -0.0821
     11 C           0.2207    0.3697    0.4538 C.ar    1  UNL1        0.1422
     12 C           0.6989    1.0844    1.5394 C.ar    1  UNL1       -0.0147
     13 C           2.1136    1.0139    1.5042 C.ar    1  UNL1       -0.0151
     14 C           2.4461    0.2597    0.3996 C.ar    1  UNL1        0.1393
     15 O           1.3000   -0.1290   -0.2344 O.2     1  UNL1       -0.4542
     16 C           3.6783   -0.1932   -0.2128 C.ar    1  UNL1        0.0634
     17 C           3.7394   -0.9763   -1.3738 C.ar    1  UNL1        0.0404
     18 N           4.8579   -1.4489   -2.0210 N.ar    1  UNL1       -0.2603
     19 C           6.1037   -1.1692   -1.5442 C.ar    1  UNL1        0.0557
     20 C           6.2076   -0.3874   -0.3772 C.ar    1  UNL1        0.1186
     21 N           7.3455   -0.0157    0.2311 N.ar    1  UNL1       -0.1892
     22 S           6.8996    0.8857    1.5489 S.2     1  UNL1        0.1165
     23 N           5.2490    0.8447    1.4068 N.ar    1  UNL1       -0.1900
     24 C           4.9591    0.1169    0.3109 C.ar    1  UNL1        0.1134
     25 H          -8.2756   -0.0797   -0.6318 H       1  UNL1        0.0649
     26 H          -7.4940    1.3828    1.5801 H       1  UNL1        0.1029
     27 H          -5.9358   -0.9087   -1.7487 H       1  UNL1        0.0655
     28 H          -3.4322   -1.1859   -2.0377 H       1  UNL1        0.0630
     29 H          -0.8141   -1.0807   -1.7526 H       1  UNL1        0.0630
     30 H           0.0988    1.6003    2.2766 H       1  UNL1        0.0656
     31 H           2.8003    1.4645    2.2076 H       1  UNL1        0.0656
     32 H           2.8137   -1.2775   -1.8669 H       1  UNL1        0.0837
     33 H           6.9539   -1.5618   -2.0859 H       1  UNL1        0.0852
@<TRIPOS>BOND
     1     1     2   ar
     2     2     3   ar
     3     3     4   ar
     4     4     5   ar
     5     4     6    1
     6     6     7   ar
     7     7     8   ar
     8     8     9   ar
     9     9    10   ar
    10     9    11    1
    11    11    12   ar
    12    12    13   ar
    13    13    14   ar
    14    14    15   ar
    15    14    16    1
    16    16    17   ar
    17    17    18   ar
    18    18    19   ar
    19    19    20   ar
    20    20    21   ar
    21    21    22   ar
    22    22    23   ar
    23    23    24   ar
    24     5     1   ar
    25    10     6   ar
    26    15    11   ar
    27    24    16   ar
    28    24    20   ar
    29     1    25    1
    30     2    26    1
    31     5    27    1
    32     7    28    1
    33     8    29    1
    34    12    30    1
    35    13    31    1
    36    17    32    1
    37    19    33    1
