@<TRIPOS>MOLECULE
*****
 42 48 0 0 0
SMALL
GASTEIGER

@<TRIPOS>ATOM
      1 SI         -5.1126    3.1843   -0.4542 Si      1  UNL1        0.0000
      2 C          -5.6843    1.5110   -1.0247 C.2     1  UNL1        0.0000
      3 C          -4.6924    0.6040   -0.9402 C.ar    1  UNL1        0.0000
      4 C          -4.9078   -0.8075   -1.1554 C.ar    1  UNL1        0.0000
      5 C          -3.9275   -1.6816   -0.8857 C.ar    1  UNL1        0.0000
      6 C          -2.6041   -1.2098   -0.4644 C.ar    1  UNL1        0.0000
      7 C          -1.5630   -2.0880   -0.1639 C.ar    1  UNL1        0.0000
      8 C          -1.5852   -3.4587   -0.1027 C.ar    1  UNL1        0.0000
      9 O          -0.3475   -3.9286    0.2328 O.2     1  UNL1        0.0000
     10 C           0.4726   -2.8457    0.3795 C.ar    1  UNL1        0.0000
     11 C          -0.2328   -1.6917    0.1460 C.ar    1  UNL1        0.0000
     12 C           0.2235   -0.3713    0.1446 C.ar    1  UNL1        0.0000
     13 C           1.5417    0.0282    0.3869 C.ar    1  UNL1        0.0000
     14 O           2.5936   -0.7645    0.7315 O.2     1  UNL1        0.0000
     15 C           3.7077    0.0249    0.8724 C.ar    1  UNL1        0.0000
     16 C           3.3461    1.3360    0.6022 C.ar    1  UNL1        0.0000
     17 C           1.9619    1.3438    0.2900 C.ar    1  UNL1        0.0000
     18 C           1.0266    2.3130   -0.0902 C.ar    1  UNL1        0.0000
     19 C          -0.3091    1.9212   -0.3248 C.ar    1  UNL1        0.0000
     20 C          -0.7940    0.5968   -0.1756 C.ar    1  UNL1        0.0000
     21 C          -2.2021    0.1783   -0.3752 C.ar    1  UNL1        0.0000
     22 C          -3.3706    1.1271   -0.4939 C.ar    1  UNL1        0.0000
     23 C          -3.4366    2.4201   -0.1061 C.2     1  UNL1        0.0000
     24 C           4.9977   -0.5001    1.2367 C.ar    1  UNL1        0.0000
     25 C           6.1803    0.1963    1.4067 C.ar    1  UNL1        0.0000
     26 C           7.2696   -0.6505    1.7703 C.ar    1  UNL1        0.0000
     27 C           6.8854   -1.9681    1.8670 C.ar    1  UNL1        0.0000
     28 S           5.2248   -2.1774    1.5214 S.2     1  UNL1        0.0000
     29 H          -5.7928    3.6341    0.7839 H       1  UNL1        0.0000
     30 H          -5.0543    4.1793   -1.5520 H       1  UNL1        0.0000
     31 H          -6.7133    1.3287   -1.2915 H       1  UNL1        0.0000
     32 H          -5.8829   -1.1519   -1.4838 H       1  UNL1        0.0000
     33 H          -4.0986   -2.7433   -1.0175 H       1  UNL1        0.0000
     34 H          -2.3382   -4.2196   -0.2494 H       1  UNL1        0.0000
     35 H           1.4976   -3.0758    0.6359 H       1  UNL1        0.0000
     36 H           4.0055    2.1917    0.6208 H       1  UNL1        0.0000
     37 H           1.3200    3.3506   -0.2230 H       1  UNL1        0.0000
     38 H          -0.9651    2.7031   -0.6955 H       1  UNL1        0.0000
     39 H          -2.6913    3.0245    0.3786 H       1  UNL1        0.0000
     40 H           6.2719    1.2676    1.2784 H       1  UNL1        0.0000
     41 H           8.2815   -0.3093    1.9513 H       1  UNL1        0.0000
     42 H           7.4980   -2.8214    2.1240 H       1  UNL1        0.0000
@<TRIPOS>BOND
     1     1     2    1
     2     2     3    2
     3     3     4   ar
     4     4     5   ar
     5     5     6   ar
     6     6     7   ar
     7     7     8   ar
     8     8     9   ar
     9     9    10   ar
    10    10    11   ar
    11    11    12   ar
    12    12    13   ar
    13    13    14   ar
    14    14    15   ar
    15    15    16   ar
    16    16    17   ar
    17    17    18   ar
    18    18    19   ar
    19    19    20   ar
    20    20    21   ar
    21    21    22   ar
    22    22    23    2
    23    15    24    1
    24    24    25   ar
    25    25    26   ar
    26    26    27   ar
    27    27    28   ar
    28    23     1    1
    29    28    24   ar
    30    22     3   ar
    31    21     6   ar
    32    11     7   ar
    33    20    12   ar
    34    17    13   ar
    35     1    29    1
    36     1    30    1
    37     2    31    1
    38     4    32    1
    39     5    33    1
    40     8    34    1
    41    10    35    1
    42    16    36    1
    43    18    37    1
    44    19    38    1
    45    23    39    1
    46    25    40    1
    47    26    41    1
    48    27    42    1
