@<TRIPOS>MOLECULE
*****
 36 41 0 0 0
SMALL
GASTEIGER

@<TRIPOS>ATOM
      1 C           6.9648    0.4892    0.1960 C.ar    1  UNL1       -0.0233
      2 C           6.9613   -0.8418   -0.1419 C.ar    1  UNL1        0.0926
      3 O           5.6892   -1.2913   -0.2845 O.2     1  UNL1       -0.4629
      4 C           4.8495   -0.2393   -0.0363 C.ar    1  UNL1        0.1348
      5 C           5.6046    0.8796    0.2646 C.ar    1  UNL1       -0.0159
      6 C           3.4160   -0.5126   -0.1377 C.ar    1  UNL1        0.0183
      7 C           2.9445   -1.7841   -0.4709 C.ar    1  UNL1       -0.0504
      8 C           1.5724   -2.0478   -0.5686 C.ar    1  UNL1       -0.0508
      9 C           0.6231   -1.0250   -0.3302 C.ar    1  UNL1        0.0152
     10 C           1.1001    0.2388    0.0012 C.ar    1  UNL1        0.0227
     11 C           2.4827    0.5094    0.1008 C.ar    1  UNL1       -0.0367
     12 S          -0.1858    1.3437    0.2528 S.2     1  UNL1       -0.0860
     13 C          -1.4038    0.1781   -0.0703 C.ar    1  UNL1        0.0471
     14 C          -0.8180   -1.0560   -0.3703 C.ar    1  UNL1        0.0863
     15 N          -1.5441   -2.1714   -0.6697 N.ar    1  UNL1       -0.2532
     16 C          -2.8848   -2.0352   -0.6651 C.ar    1  UNL1        0.0360
     17 C          -3.5950   -0.8766   -0.3870 C.ar    1  UNL1        0.0020
     18 C          -5.0436   -0.8605   -0.4153 C.ar    1  UNL1       -0.0519
     19 C          -5.8469    0.2714   -0.1460 C.ar    1  UNL1       -0.0504
     20 C          -5.0490    1.3647    0.1493 C.ar    1  UNL1        0.0205
     21 C          -5.4863    2.6236    0.4590 C.ar    1  UNL1        0.0994
     22 O          -4.4094    3.4312    0.6881 O.2     1  UNL1       -0.4698
     23 C          -3.2810    2.6737    0.5211 C.ar    1  UNL1        0.1000
     24 C          -3.6192    1.3858    0.1866 C.ar    1  UNL1        0.0287
     25 C          -2.8064    0.2739   -0.0774 C.ar    1  UNL1        0.0101
     26 H           7.8378    1.1018    0.3709 H       1  UNL1        0.0649
     27 H           7.7372   -1.5753   -0.3107 H       1  UNL1        0.1029
     28 H           5.2249    1.8621    0.5055 H       1  UNL1        0.0655
     29 H           3.6416   -2.5983   -0.6620 H       1  UNL1        0.0625
     30 H           1.2294   -3.0468   -0.8298 H       1  UNL1        0.0625
     31 H           2.8091    1.5119    0.3625 H       1  UNL1        0.0636
     32 H          -3.4107   -2.9565   -0.9107 H       1  UNL1        0.0836
     33 H          -5.5650   -1.7882   -0.6624 H       1  UNL1        0.0624
     34 H          -6.9273    0.2595   -0.1732 H       1  UNL1        0.0625
     35 H          -6.4534    3.0959    0.5572 H       1  UNL1        0.1035
     36 H          -2.3585    3.2124    0.6784 H       1  UNL1        0.1036
@<TRIPOS>BOND
     1     1     2   ar
     2     2     3   ar
     3     3     4   ar
     4     4     5   ar
     5     4     6    1
     6     6     7   ar
     7     7     8   ar
     8     8     9   ar
     9     9    10   ar
    10    10    11   ar
    11    10    12   ar
    12    12    13   ar
    13    13    14   ar
    14    14    15   ar
    15    15    16   ar
    16    16    17   ar
    17    17    18   ar
    18    18    19   ar
    19    19    20   ar
    20    20    21   ar
    21    21    22   ar
    22    22    23   ar
    23    23    24   ar
    24    24    25   ar
    25     5     1   ar
    26    11     6   ar
    27    25    13   ar
    28    14     9   ar
    29    25    17   ar
    30    24    20   ar
    31     1    26    1
    32     2    27    1
    33     5    28    1
    34     7    29    1
    35     8    30    1
    36    11    31    1
    37    16    32    1
    38    18    33    1
    39    19    34    1
    40    21    35    1
    41    23    36    1
