@<TRIPOS>MOLECULE
*****
 37 42 0 0 0
SMALL
GASTEIGER

@<TRIPOS>ATOM
      1 C           7.1150    0.6053    0.1916 C.ar    1  UNL1       -0.0233
      2 C           7.0700   -0.6789   -0.2930 C.ar    1  UNL1        0.0926
      3 O           5.7840   -1.0831   -0.4450 O.2     1  UNL1       -0.4629
      4 C           4.9771   -0.0489   -0.0542 C.ar    1  UNL1        0.1348
      5 C           5.7670    1.0133    0.3462 C.ar    1  UNL1       -0.0159
      6 C           3.5359   -0.2809   -0.1411 C.ar    1  UNL1        0.0179
      7 C           3.0234   -1.5021   -0.6018 C.ar    1  UNL1       -0.0505
      8 C           1.6448   -1.7236   -0.6847 C.ar    1  UNL1       -0.0522
      9 C           0.7391   -0.7136   -0.3031 C.ar    1  UNL1       -0.0006
     10 C          -0.6767   -0.8754   -0.3634 C.ar    1  UNL1        0.0464
     11 S          -1.6021   -2.2490   -0.8814 S.2     1  UNL1       -0.0860
     12 C          -3.1127   -1.4791   -0.5901 C.ar    1  UNL1        0.0227
     13 C          -4.4278   -2.0074   -0.7888 C.ar    1  UNL1       -0.0467
     14 C          -5.5885   -1.2579   -0.5054 C.ar    1  UNL1       -0.0515
     15 C          -5.2805    0.0050   -0.0289 C.ar    1  UNL1        0.0001
     16 C          -6.2021    0.9598    0.3319 C.ar    1  UNL1        0.0094
     17 N          -5.5013    2.0786    0.7538 N.ar    1  UNL1       -0.3659
     18 C          -4.1426    1.8528    0.6680 C.ar    1  UNL1        0.0101
     19 C          -4.0229    0.5828    0.1885 C.ar    1  UNL1        0.0097
     20 C          -2.8633   -0.2038   -0.1089 C.ar    1  UNL1        0.0243
     21 C          -1.5115    0.1774    0.0343 C.ar    1  UNL1        0.0869
     22 N          -1.0293    1.3703    0.4843 N.ar    1  UNL1       -0.2532
     23 C           0.3110    1.4896    0.5287 C.ar    1  UNL1        0.0360
     24 C           1.2344    0.5162    0.1609 C.ar    1  UNL1        0.0020
     25 C           2.6271    0.7206    0.2373 C.ar    1  UNL1       -0.0419
     26 H           8.0073    1.1760    0.4066 H       1  UNL1        0.0649
     27 H           7.8231   -1.4044   -0.5672 H       1  UNL1        0.1029
     28 H           5.4190    1.9702    0.7075 H       1  UNL1        0.0655
     29 H           3.6975   -2.3018   -0.9039 H       1  UNL1        0.0625
     30 H           1.2947   -2.6866   -1.0480 H       1  UNL1        0.0624
     31 H          -4.5376   -3.0209   -1.1713 H       1  UNL1        0.0629
     32 H          -6.5879   -1.6442   -0.6507 H       1  UNL1        0.0624
     33 H          -7.2836    0.9628    0.3336 H       1  UNL1        0.0813
     34 H          -5.9244    2.9381    1.0785 H       1  UNL1        0.1648
     35 H          -3.4227    2.6080    0.9527 H       1  UNL1        0.0813
     36 H           0.6482    2.4579    0.8940 H       1  UNL1        0.0836
     37 H           2.9989    1.6772    0.5982 H       1  UNL1        0.0631
@<TRIPOS>BOND
     1     1     2   ar
     2     2     3   ar
     3     3     4   ar
     4     4     5   ar
     5     4     6    1
     6     6     7   ar
     7     7     8   ar
     8     8     9   ar
     9     9    10   ar
    10    10    11   ar
    11    11    12   ar
    12    12    13   ar
    13    13    14   ar
    14    14    15   ar
    15    15    16   ar
    16    16    17   ar
    17    17    18   ar
    18    18    19   ar
    19    19    20   ar
    20    20    21   ar
    21    21    22   ar
    22    22    23   ar
    23    23    24   ar
    24    24    25   ar
    25     5     1   ar
    26    25     6   ar
    27    24     9   ar
    28    21    10   ar
    29    20    12   ar
    30    19    15   ar
    31     1    26    1
    32     2    27    1
    33     5    28    1
    34     7    29    1
    35     8    30    1
    36    13    31    1
    37    14    32    1
    38    16    33    1
    39    17    34    1
    40    18    35    1
    41    23    36    1
    42    25    37    1
