@<TRIPOS>MOLECULE
*****
 45 51 0 0 0
SMALL
GASTEIGER

@<TRIPOS>ATOM
      1 C           7.3763   -0.4224   -0.8644 C.ar    1  UNL1       -0.0233
      2 C           7.2352    0.7581   -1.5520 C.ar    1  UNL1        0.0926
      3 O           5.9408    1.1644   -1.5345 O.2     1  UNL1       -0.4629
      4 C           5.2272    0.2370   -0.8260 C.ar    1  UNL1        0.1362
      5 C           6.0826   -0.7603   -0.3955 C.ar    1  UNL1       -0.0158
      6 C           3.7994    0.4913   -0.6889 C.ar    1  UNL1        0.0359
      7 C           3.1912    1.5984   -1.2376 C.ar    1  UNL1        0.0390
      8 N           1.8697    1.8615   -1.1376 N.ar    1  UNL1       -0.2521
      9 C           1.0453    1.0151   -0.4690 C.ar    1  UNL1        0.0975
     10 C           1.5601   -0.1363    0.1620 C.ar    1  UNL1        0.0109
     11 C           2.9581   -0.3707    0.0171 C.ar    1  UNL1       -0.0398
     12 C           0.6957   -0.9616    0.9425 C.ar    1  UNL1       -0.0080
     13 C           1.1668   -2.0555    1.7220 C.ar    1  UNL1       -0.0534
     14 C           0.3435   -2.7746    2.5859 C.ar    1  UNL1       -0.0611
     15 C          -0.9753   -2.4000    2.7212 C.ar    1  UNL1       -0.0611
     16 C          -1.4669   -1.3517    1.9448 C.ar    1  UNL1       -0.0534
     17 C          -0.6868   -0.6582    0.9858 C.ar    1  UNL1       -0.0074
     18 C          -1.2327    0.3810    0.1511 C.ar    1  UNL1        0.0185
     19 C          -0.3270    1.2895   -0.4323 C.ar    1  UNL1        0.0980
     20 N          -0.7550    2.4490   -0.9830 N.ar    1  UNL1       -0.2522
     21 C          -2.0667    2.7507   -1.0312 C.ar    1  UNL1        0.0361
     22 C          -3.0807    1.8964   -0.6649 C.ar    1  UNL1        0.0015
     23 C          -4.4557    2.3068   -0.8704 C.ar    1  UNL1       -0.0519
     24 C          -5.5803    1.4865   -0.6700 C.ar    1  UNL1       -0.0520
     25 C          -5.1638    0.2181   -0.3195 C.ar    1  UNL1        0.0000
     26 C          -5.9974   -0.8646   -0.2089 C.ar    1  UNL1        0.0094
     27 N          -5.1945   -1.9579    0.0129 N.ar    1  UNL1       -0.3659
     28 C          -3.8700   -1.5742    0.0324 C.ar    1  UNL1        0.0100
     29 C          -3.8161   -0.2022   -0.0793 C.ar    1  UNL1        0.0078
     30 C          -2.6503    0.6338   -0.1421 C.ar    1  UNL1        0.0025
     31 H           8.2964   -0.9707   -0.7195 H       1  UNL1        0.0649
     32 H           7.9204    1.4039   -2.0836 H       1  UNL1        0.1029
     33 H           5.8127   -1.6297    0.1867 H       1  UNL1        0.0655
     34 H           3.7515    2.3406   -1.8001 H       1  UNL1        0.0837
     35 H           3.4090   -1.2480    0.4684 H       1  UNL1        0.0632
     36 H           2.2106   -2.3547    1.7020 H       1  UNL1        0.0624
     37 H           0.7484   -3.5908    3.1778 H       1  UNL1        0.0618
     38 H          -1.6242   -2.9047    3.4315 H       1  UNL1        0.0618
     39 H          -2.4935   -1.0454    2.1368 H       1  UNL1        0.0624
     40 H          -2.2720    3.7332   -1.4495 H       1  UNL1        0.0836
     41 H          -4.6442    3.3172   -1.2400 H       1  UNL1        0.0624
     42 H          -6.5963    1.7994   -0.8593 H       1  UNL1        0.0624
     43 H          -7.0683   -0.9746   -0.3126 H       1  UNL1        0.0813
     44 H          -5.5210   -2.9128    0.0867 H       1  UNL1        0.1648
     45 H          -3.1021   -2.3316    0.1041 H       1  UNL1        0.0813
@<TRIPOS>BOND
     1     1     2   ar
     2     2     3   ar
     3     3     4   ar
     4     4     5   ar
     5     4     6    1
     6     6     7   ar
     7     7     8   ar
     8     8     9   ar
     9     9    10   ar
    10    10    11   ar
    11    10    12   ar
    12    12    13   ar
    13    13    14   ar
    14    14    15   ar
    15    15    16   ar
    16    16    17   ar
    17    17    18   ar
    18    18    19   ar
    19    19    20   ar
    20    20    21   ar
    21    21    22   ar
    22    22    23   ar
    23    23    24   ar
    24    24    25   ar
    25    25    26   ar
    26    26    27   ar
    27    27    28   ar
    28    28    29   ar
    29    29    30   ar
    30     5     1   ar
    31    11     6   ar
    32    17    12   ar
    33    30    18   ar
    34    19     9   ar
    35    30    22   ar
    36    29    25   ar
    37     1    31    1
    38     2    32    1
    39     5    33    1
    40     7    34    1
    41    11    35    1
    42    13    36    1
    43    14    37    1
    44    15    38    1
    45    16    39    1
    46    21    40    1
    47    23    41    1
    48    24    42    1
    49    26    43    1
    50    27    44    1
    51    28    45    1
