@<TRIPOS>MOLECULE
*****
 39 45 0 0 0
SMALL
GASTEIGER

@<TRIPOS>ATOM
      1 C           6.9593   -1.3804   -0.4644 C.ar    1  UNL1       -0.0233
      2 C           6.7843   -0.1305    0.0774 C.ar    1  UNL1        0.0926
      3 O           5.4636    0.1701    0.1580 O.2     1  UNL1       -0.4629
      4 C           4.7672   -0.8983   -0.3379 C.ar    1  UNL1        0.1362
      5 C           5.6598   -1.8775   -0.7331 C.ar    1  UNL1       -0.0158
      6 C           3.3159   -0.7757   -0.3404 C.ar    1  UNL1        0.0359
      7 C           2.4997   -1.7847   -0.8235 C.ar    1  UNL1        0.0389
      8 N           1.1395   -1.7433   -0.8582 N.ar    1  UNL1       -0.2536
      9 C           0.4780   -0.6599   -0.3941 C.ar    1  UNL1        0.0808
     10 C           1.2414    0.4231    0.1096 C.ar    1  UNL1        0.0099
     11 C           2.6597    0.3553    0.1332 C.ar    1  UNL1       -0.0398
     12 C           0.4391    1.5166    0.5147 C.ar    1  UNL1       -0.0011
     13 C           0.9690    2.7083    0.9577 C.ar    1  UNL1       -0.0160
     14 S          -0.2461    3.8761    1.2406 S.2     1  UNL1       -0.1038
     15 C          -1.4800    2.7838    0.7654 C.ar    1  UNL1       -0.0160
     16 C          -1.0101    1.5203    0.4900 C.ar    1  UNL1       -0.0017
     17 C          -1.8248    0.4045    0.0886 C.ar    1  UNL1        0.0051
     18 C          -0.9629   -0.6324   -0.4164 C.ar    1  UNL1        0.0274
     19 C          -1.6248   -1.7117   -0.9888 C.ar    1  UNL1        0.0380
     20 N          -2.9662   -1.8747   -1.1038 N.ar    1  UNL1       -0.2542
     21 C          -3.7774   -0.9760   -0.5609 C.ar    1  UNL1        0.0738
     22 C          -5.1389   -1.2844   -0.6906 C.ar    1  UNL1       -0.0336
     23 C          -6.1922   -0.5409   -0.1473 C.ar    1  UNL1       -0.0315
     24 C          -5.7937    0.5641    0.6181 C.ar    1  UNL1        0.1006
     25 N          -6.6326    1.3747    1.2792 N.ar    1  UNL1       -0.1908
     26 S          -5.6906    2.4662    2.0880 S.2     1  UNL1        0.1165
     27 N          -4.1877    1.9695    1.6140 N.ar    1  UNL1       -0.1901
     28 C          -4.3331    0.9340    0.7695 C.ar    1  UNL1        0.1096
     29 C          -3.2787    0.1810    0.1056 C.ar    1  UNL1        0.0369
     30 H           7.9051   -1.8721   -0.6434 H       1  UNL1        0.0649
     31 H           7.4605    0.6320    0.4384 H       1  UNL1        0.1029
     32 H           5.4121   -2.8374   -1.1638 H       1  UNL1        0.0655
     33 H           2.9150   -2.7079   -1.2197 H       1  UNL1        0.0837
     34 H           3.2416    1.1875    0.5189 H       1  UNL1        0.0632
     35 H           2.0020    2.9902    1.1043 H       1  UNL1        0.0700
     36 H          -2.4774    3.1830    0.7074 H       1  UNL1        0.0700
     37 H          -1.0669   -2.5424   -1.4226 H       1  UNL1        0.0836
     38 H          -5.3985   -2.1867   -1.2493 H       1  UNL1        0.0640
     39 H          -7.2302   -0.8234   -0.2676 H       1  UNL1        0.0640
@<TRIPOS>BOND
     1     1     2   ar
     2     2     3   ar
     3     3     4   ar
     4     4     5   ar
     5     4     6    1
     6     6     7   ar
     7     7     8   ar
     8     8     9   ar
     9     9    10   ar
    10    10    11   ar
    11    10    12   ar
    12    12    13   ar
    13    13    14   ar
    14    14    15   ar
    15    15    16   ar
    16    16    17   ar
    17    17    18   ar
    18    18    19   ar
    19    19    20   ar
    20    20    21   ar
    21    21    22   ar
    22    22    23   ar
    23    23    24   ar
    24    24    25   ar
    25    25    26   ar
    26    26    27   ar
    27    27    28   ar
    28    28    29   ar
    29     5     1   ar
    30    11     6   ar
    31    16    12   ar
    32    29    17   ar
    33    18     9   ar
    34    29    21   ar
    35    28    24   ar
    36     1    30    1
    37     2    31    1
    38     5    32    1
    39     7    33    1
    40    11    34    1
    41    13    35    1
    42    15    36    1
    43    19    37    1
    44    22    38    1
    45    23    39    1
