@<TRIPOS>MOLECULE
*****
 36 41 0 0 0
SMALL
GASTEIGER

@<TRIPOS>ATOM
      1 C          -7.0439    0.9562    0.7968 C.ar    1  UNL1       -0.0232
      2 C          -6.4810    1.3321    1.9916 C.ar    1  UNL1        0.0926
      3 O          -5.1310    1.2153    1.9380 O.2     1  UNL1       -0.4613
      4 C          -4.8032    0.7571    0.6887 C.ar    1  UNL1        0.1551
      5 C          -5.9653    0.5894   -0.0437 C.ar    1  UNL1       -0.0143
      6 C          -3.3882    0.5586    0.4395 C.ar    1  UNL1        0.1340
      7 N          -2.4989    0.8026    1.4578 N.ar    1  UNL1       -0.2490
      8 C          -1.1526    0.6225    1.2865 C.ar    1  UNL1        0.0388
      9 C          -0.5053    0.1990    0.1276 C.ar    1  UNL1        0.0371
     10 C           0.9250    0.0082    0.0126 C.ar    1  UNL1        0.0510
     11 S           1.9037    1.2791   -0.5862 S.2     1  UNL1       -0.0832
     12 C           3.3654    0.3591   -0.4608 C.ar    1  UNL1        0.0554
     13 C           4.6443    0.8964   -0.8684 C.ar    1  UNL1        0.0475
     14 C           5.7855    0.2011   -1.2406 C.ar    1  UNL1        0.0430
     15 N           6.8870    0.9623   -1.5914 N.ar    1  UNL1       -0.2551
     16 C           6.5795    2.2338   -1.4771 C.ar    1  UNL1        0.0653
     17 S           4.9886    2.5844   -0.9544 S.2     1  UNL1       -0.0749
     18 C           3.0892   -0.8985    0.0460 C.ar    1  UNL1        0.1051
     19 N           4.0375   -1.8556    0.2775 N.ar    1  UNL1       -0.2507
     20 C           3.4839   -2.9867    0.7915 C.ar    1  UNL1        0.0464
     21 C           2.1232   -3.1698    1.0590 C.ar    1  UNL1        0.0464
     22 N           1.1545   -2.2400    0.8448 N.ar    1  UNL1       -0.2508
     23 C           1.6837   -1.0934    0.3252 C.ar    1  UNL1        0.1046
     24 C          -1.3734   -0.0668   -0.9572 C.ar    1  UNL1        0.1118
     25 N          -1.0198   -0.4863   -2.1863 N.ar    1  UNL1       -0.1900
     26 S          -2.4149   -0.6455   -3.0616 S.2     1  UNL1        0.1166
     27 N          -3.5382   -0.1743   -1.9386 N.ar    1  UNL1       -0.1885
     28 C          -2.8694    0.1181   -0.8069 C.ar    1  UNL1        0.1294
     29 H          -8.0990    0.9439    0.5628 H       1  UNL1        0.0649
     30 H          -6.8800    1.6834    2.9323 H       1  UNL1        0.1029
     31 H          -6.0338    0.2312   -1.0635 H       1  UNL1        0.0656
     32 H          -0.5730    0.8436    2.1833 H       1  UNL1        0.0837
     33 H           5.8732   -0.8794   -1.2859 H       1  UNL1        0.0841
     34 H           7.2883    3.0202   -1.6995 H       1  UNL1        0.0907
     35 H           4.1899   -3.7873    0.9962 H       1  UNL1        0.0845
     36 H           1.7685   -4.1140    1.4646 H       1  UNL1        0.0845
@<TRIPOS>BOND
     1     1     2   ar
     2     2     3   ar
     3     3     4   ar
     4     4     5   ar
     5     4     6    1
     6     6     7   ar
     7     7     8   ar
     8     8     9   ar
     9     9    10    1
    10    10    11   ar
    11    11    12   ar
    12    12    13    1
    13    13    14   ar
    14    14    15   ar
    15    15    16   ar
    16    16    17   ar
    17    12    18   ar
    18    18    19   ar
    19    19    20   ar
    20    20    21   ar
    21    21    22   ar
    22    22    23   ar
    23     9    24   ar
    24    24    25   ar
    25    25    26   ar
    26    26    27   ar
    27    27    28   ar
    28     5     1   ar
    29    28     6   ar
    30    23    10   ar
    31    28    24   ar
    32    17    13   ar
    33    23    18   ar
    34     1    29    1
    35     2    30    1
    36     5    31    1
    37     8    32    1
    38    14    33    1
    39    16    34    1
    40    20    35    1
    41    21    36    1
