@<TRIPOS>MOLECULE
*****
 36 41 0 0 0
SMALL
GASTEIGER

@<TRIPOS>ATOM
      1 C           7.0543    0.8797    0.9544 C.ar    1  UNL1       -0.0233
      2 C           6.5079    2.0842    1.3157 C.ar    1  UNL1        0.0926
      3 O           5.1587    2.0448    1.1998 O.2     1  UNL1       -0.4623
      4 C           4.7997    0.7921    0.7535 C.ar    1  UNL1        0.1435
      5 C           5.9630    0.0520    0.5945 C.ar    1  UNL1       -0.0153
      6 C           3.4274    0.4148    0.5229 C.ar    1  UNL1        0.0824
      7 S           2.1666    1.5457    0.8052 S.2     1  UNL1       -0.0803
      8 C           0.9049    0.4576    0.3452 C.ar    1  UNL1        0.0555
      9 C          -0.4792    0.8940    0.3858 C.ar    1  UNL1        0.0481
     10 C          -0.9849    2.1294    0.7607 C.ar    1  UNL1        0.0438
     11 N          -2.3579    2.2792    0.7063 N.ar    1  UNL1       -0.2461
     12 C          -2.9170    1.1628    0.2902 C.ar    1  UNL1        0.1160
     13 S          -1.8113   -0.1031   -0.0493 S.2     1  UNL1       -0.0661
     14 C          -4.3423    1.0232    0.1350 C.ar    1  UNL1        0.0551
     15 S          -5.4292    2.3527    0.4971 S.2     1  UNL1       -0.0902
     16 C          -6.8547    1.4631    0.0909 C.ar    1  UNL1        0.0192
     17 C          -6.4686    0.2342   -0.2909 C.ar    1  UNL1        0.1424
     18 O          -7.2924   -0.7722   -0.6903 O.2     1  UNL1       -0.4624
     19 C          -6.3540   -1.7521   -0.9467 C.ar    1  UNL1        0.0932
     20 C          -5.0320   -1.3540   -0.7129 C.ar    1  UNL1       -0.0150
     21 C          -5.1161   -0.0157   -0.2715 C.ar    1  UNL1        0.0369
     22 C           1.4563   -0.7588   -0.0197 C.ar    1  UNL1        0.1052
     23 N           0.7245   -1.8363   -0.4357 N.ar    1  UNL1       -0.2507
     24 C           1.5115   -2.9008   -0.7319 C.ar    1  UNL1        0.0464
     25 C           2.9025   -2.9195   -0.6323 C.ar    1  UNL1        0.0464
     26 N           3.6672   -1.8752   -0.2248 N.ar    1  UNL1       -0.2507
     27 C           2.9055   -0.7817    0.0830 C.ar    1  UNL1        0.1075
     28 H           8.1050    0.6271    0.9499 H       1  UNL1        0.0649
     29 H           6.9202    3.0221    1.6608 H       1  UNL1        0.1029
     30 H           6.0196   -0.9734    0.2558 H       1  UNL1        0.0656
     31 H          -0.3966    2.9782    1.0895 H       1  UNL1        0.0841
     32 H          -7.8542    1.8679    0.1502 H       1  UNL1        0.0731
     33 H          -6.7787   -2.6861   -1.2915 H       1  UNL1        0.1030
     34 H          -4.1576   -1.9731   -0.8535 H       1  UNL1        0.0655
     35 H           0.9766   -3.7847   -1.0683 H       1  UNL1        0.0845
     36 H           3.4556   -3.8182   -0.8908 H       1  UNL1        0.0845
@<TRIPOS>BOND
     1     1     2   ar
     2     2     3   ar
     3     3     4   ar
     4     4     5   ar
     5     4     6    1
     6     6     7   ar
     7     7     8   ar
     8     8     9    1
     9     9    10   ar
    10    10    11   ar
    11    11    12   ar
    12    12    13   ar
    13    12    14    1
    14    14    15   ar
    15    15    16   ar
    16    16    17   ar
    17    17    18   ar
    18    18    19   ar
    19    19    20   ar
    20    20    21   ar
    21     8    22   ar
    22    22    23   ar
    23    23    24   ar
    24    24    25   ar
    25    25    26   ar
    26    26    27   ar
    27     5     1   ar
    28    27     6   ar
    29    13     9   ar
    30    21    14   ar
    31    27    22   ar
    32    21    17   ar
    33     1    28    1
    34     2    29    1
    35     5    30    1
    36    10    31    1
    37    16    32    1
    38    19    33    1
    39    20    34    1
    40    24    35    1
    41    25    36    1
