@<TRIPOS>MOLECULE
*****
 39 44 0 0 0
SMALL
GASTEIGER

@<TRIPOS>ATOM
      1 C          -6.3115    2.9448   -0.5952 C.ar    1  UNL1       -0.0233
      2 C          -6.8615    1.9226    0.1351 C.ar    1  UNL1        0.0926
      3 O          -5.9083    1.0255    0.4856 O.2     1  UNL1       -0.4624
      4 C          -4.7045    1.4582   -0.0194 C.ar    1  UNL1        0.1419
      5 C          -4.9300    2.6496   -0.6957 C.ar    1  UNL1       -0.0154
      6 C          -3.4817    0.7287    0.1753 C.ar    1  UNL1        0.0632
      7 S          -1.9667    1.2469   -0.4699 S.2     1  UNL1       -0.0829
      8 C          -1.1047   -0.0942    0.1760 C.ar    1  UNL1        0.0415
      9 C           0.2957   -0.2946   -0.0218 C.ar    1  UNL1        0.0358
     10 S           1.4713    0.8317    0.5460 S.2     1  UNL1       -0.0860
     11 C           2.7965   -0.0985   -0.0387 C.ar    1  UNL1        0.0342
     12 C           4.1798    0.3181    0.1437 C.ar    1  UNL1       -0.0102
     13 C           5.0797   -0.4891    0.8536 C.ar    1  UNL1       -0.0535
     14 C           6.4067   -0.0898    1.0297 C.ar    1  UNL1       -0.0612
     15 C           6.8471    1.1211    0.4992 C.ar    1  UNL1       -0.0617
     16 C           5.9624    1.9339   -0.2067 C.ar    1  UNL1       -0.0612
     17 C           4.6351    1.5351   -0.3831 C.ar    1  UNL1       -0.0535
     18 C           2.3514   -1.2330   -0.6628 C.ar    1  UNL1        0.0347
     19 S           3.2228   -2.5829   -1.4943 S.2     1  UNL1       -0.0955
     20 C           1.6211   -3.2383   -1.7935 C.ar    1  UNL1       -0.0231
     21 C           0.5441   -2.4906   -1.3064 C.ar    1  UNL1       -0.0458
     22 C           0.9566   -1.3093   -0.6329 C.ar    1  UNL1        0.0051
     23 C          -1.9491   -0.9136    0.8750 C.ar    1  UNL1        0.0353
     24 S          -1.6621   -2.4469    1.7943 S.2     1  UNL1       -0.0955
     25 C          -3.3844   -2.3979    2.1276 C.ar    1  UNL1       -0.0231
     26 C          -4.0886   -1.3153    1.5911 C.ar    1  UNL1       -0.0458
     27 C          -3.2594   -0.4276    0.8514 C.ar    1  UNL1        0.0076
     28 H          -6.8372    3.7960   -1.0040 H       1  UNL1        0.0649
     29 H          -7.8631    1.6976    0.4742 H       1  UNL1        0.1029
     30 H          -4.1822    3.2421   -1.2048 H       1  UNL1        0.0656
     31 H           4.7521   -1.4345    1.2809 H       1  UNL1        0.0624
     32 H           7.0949   -0.7244    1.5820 H       1  UNL1        0.0618
     33 H           7.8797    1.4314    0.6362 H       1  UNL1        0.0618
     34 H           6.3043    2.8784   -0.6216 H       1  UNL1        0.0618
     35 H           3.9603    2.1800   -0.9418 H       1  UNL1        0.0624
     36 H           1.5659   -4.1723   -2.3361 H       1  UNL1        0.0694
     37 H          -0.4847   -2.8019   -1.4429 H       1  UNL1        0.0629
     38 H          -3.7935   -3.2003    2.7265 H       1  UNL1        0.0694
     39 H          -5.1542   -1.1869    1.7409 H       1  UNL1        0.0629
@<TRIPOS>BOND
     1     1     2   ar
     2     2     3   ar
     3     3     4   ar
     4     4     5   ar
     5     4     6    1
     6     6     7   ar
     7     7     8   ar
     8     8     9    1
     9     9    10   ar
    10    10    11   ar
    11    11    12    1
    12    12    13   ar
    13    13    14   ar
    14    14    15   ar
    15    15    16   ar
    16    16    17   ar
    17    11    18   ar
    18    18    19   ar
    19    19    20   ar
    20    20    21   ar
    21    21    22   ar
    22     8    23   ar
    23    23    24   ar
    24    24    25   ar
    25    25    26   ar
    26    26    27   ar
    27     5     1   ar
    28    27     6   ar
    29    22     9   ar
    30    27    23   ar
    31    17    12   ar
    32    22    18   ar
    33     1    28    1
    34     2    29    1
    35     5    30    1
    36    13    31    1
    37    14    32    1
    38    15    33    1
    39    16    34    1
    40    17    35    1
    41    20    36    1
    42    21    37    1
    43    25    38    1
    44    26    39    1
