@<TRIPOS>MOLECULE
*****
 39 45 0 0 0
SMALL
GASTEIGER

@<TRIPOS>ATOM
      1 C          -6.2403    2.6336   -1.6063 C.ar    1  UNL1       -0.0233
      2 C          -6.8664    1.6102   -0.9420 C.ar    1  UNL1        0.0926
      3 O          -5.9535    0.7434   -0.4405 O.2     1  UNL1       -0.4624
      4 C          -4.6997    1.1979   -0.7763 C.ar    1  UNL1        0.1419
      5 C          -4.8524    2.3718   -1.5018 C.ar    1  UNL1       -0.0154
      6 C          -3.5014    0.5029   -0.3937 C.ar    1  UNL1        0.0632
      7 S          -1.9221    1.0489   -0.8240 S.2     1  UNL1       -0.0829
      8 C          -1.1295   -0.2597   -0.0355 C.ar    1  UNL1        0.0416
      9 C           0.2894   -0.4265   -0.0294 C.ar    1  UNL1        0.0384
     10 S           1.3715    0.8162    0.5403 S.2     1  UNL1       -0.0832
     11 C           2.7967   -0.1127    0.2260 C.ar    1  UNL1        0.0663
     12 C           4.1455    0.3262    0.5053 C.ar    1  UNL1        0.0385
     13 C           5.1110   -0.4691    1.1372 C.ar    1  UNL1        0.0381
     14 N           6.4090   -0.1362    1.4459 N.ar    1  UNL1       -0.2604
     15 C           6.9057    1.0925    1.1243 C.ar    1  UNL1        0.0557
     16 C           6.0549    2.0019    0.4658 C.ar    1  UNL1        0.1185
     17 N           6.3732    3.2442    0.0673 N.ar    1  UNL1       -0.1892
     18 S           5.0175    3.8630   -0.6612 S.2     1  UNL1        0.1165
     19 N           3.9723    2.5874   -0.5035 N.ar    1  UNL1       -0.1900
     20 C           4.6326    1.6082    0.1431 C.ar    1  UNL1        0.1111
     21 C           2.4063   -1.3053   -0.2665 C.ar    1  UNL1        0.1502
     22 O           3.2093   -2.3417   -0.6386 O.2     1  UNL1       -0.4617
     23 C           2.2496   -3.2405   -1.0655 C.ar    1  UNL1        0.0932
     24 C           0.9348   -2.7719   -0.9546 C.ar    1  UNL1       -0.0150
     25 C           1.0506   -1.4787   -0.4115 C.ar    1  UNL1        0.0361
     26 C          -2.0480   -1.0882    0.5515 C.ar    1  UNL1        0.0353
     27 S          -1.8648   -2.5968    1.5376 S.2     1  UNL1       -0.0955
     28 C          -3.6174   -2.5850    1.6173 C.ar    1  UNL1       -0.0231
     29 C          -4.2599   -1.5302    0.9615 C.ar    1  UNL1       -0.0458
     30 C          -3.3521   -0.6359    0.3302 C.ar    1  UNL1        0.0076
     31 H          -6.7208    3.4644   -2.1033 H       1  UNL1        0.0649
     32 H          -7.9011    1.3657   -0.7456 H       1  UNL1        0.1029
     33 H          -4.0527    2.9744   -1.9103 H       1  UNL1        0.0656
     34 H           4.8521   -1.4822    1.4497 H       1  UNL1        0.0836
     35 H           7.9330    1.3081    1.3861 H       1  UNL1        0.0852
     36 H           2.6559   -4.1767   -1.4264 H       1  UNL1        0.1030
     37 H           0.0417   -3.3122   -1.2349 H       1  UNL1        0.0655
     38 H          -4.0918   -3.3859    2.1683 H       1  UNL1        0.0694
     39 H          -5.3385   -1.4253    0.9535 H       1  UNL1        0.0629
@<TRIPOS>BOND
     1     1     2   ar
     2     2     3   ar
     3     3     4   ar
     4     4     5   ar
     5     4     6    1
     6     6     7   ar
     7     7     8   ar
     8     8     9    1
     9     9    10   ar
    10    10    11   ar
    11    11    12    1
    12    12    13   ar
    13    13    14   ar
    14    14    15   ar
    15    15    16   ar
    16    16    17   ar
    17    17    18   ar
    18    18    19   ar
    19    19    20   ar
    20    11    21   ar
    21    21    22   ar
    22    22    23   ar
    23    23    24   ar
    24    24    25   ar
    25     8    26   ar
    26    26    27   ar
    27    27    28   ar
    28    28    29   ar
    29    29    30   ar
    30     5     1   ar
    31    30     6   ar
    32    25     9   ar
    33    30    26   ar
    34    20    12   ar
    35    25    21   ar
    36    20    16   ar
    37     1    31    1
    38     2    32    1
    39     5    33    1
    40    13    34    1
    41    15    35    1
    42    23    36    1
    43    24    37    1
    44    28    38    1
    45    29    39    1
