@<TRIPOS>MOLECULE
*****
 38 43 0 0 0
SMALL
GASTEIGER

@<TRIPOS>ATOM
      1 C          -6.7935   -1.1226   -0.1254 C.ar    1  UNL1       -0.0541
      2 C          -7.1208    0.0559    0.5004 C.ar    1  UNL1       -0.0237
      3 S          -5.7419    0.9961    0.8537 S.2     1  UNL1       -0.0951
      4 C          -4.6652   -0.1663    0.1693 C.ar    1  UNL1        0.0375
      5 C          -5.3854   -1.2497   -0.3151 C.ar    1  UNL1       -0.0455
      6 C          -3.2072    0.0721    0.1602 C.ar    1  UNL1        0.0781
      7 C          -2.3150   -0.8407   -0.3815 C.ar    1  UNL1       -0.0268
      8 C          -0.9363   -0.5341   -0.3490 C.ar    1  UNL1       -0.0032
      9 C           0.1180   -1.3248   -0.8433 C.ar    1  UNL1        0.0080
     10 C           0.0147   -2.5509   -1.4551 C.ar    1  UNL1        0.0100
     11 N           1.2923   -2.9534   -1.7727 N.ar    1  UNL1       -0.3659
     12 C           2.1987   -1.9996   -1.3704 C.ar    1  UNL1        0.0101
     13 C           1.4978   -0.9707   -0.7869 C.ar    1  UNL1        0.0112
     14 C           2.0111    0.2305   -0.2242 C.ar    1  UNL1        0.0361
     15 C           3.3729    0.6356   -0.1404 C.ar    1  UNL1        0.0822
     16 N           4.4070   -0.1103   -0.6102 N.ar    1  UNL1       -0.2542
     17 C           5.6727    0.3491   -0.4902 C.ar    1  UNL1        0.0283
     18 C           5.9967    1.5549    0.0916 C.ar    1  UNL1       -0.0430
     19 C           4.9562    2.3306    0.5771 C.ar    1  UNL1       -0.0497
     20 C           3.6329    1.8723    0.4628 C.ar    1  UNL1        0.0191
     21 C           2.5586    2.6132    0.9337 C.ar    1  UNL1        0.0375
     22 N           1.2656    2.2315    0.8556 N.ar    1  UNL1       -0.2536
     23 C           0.9534    1.0543    0.2872 C.ar    1  UNL1        0.0828
     24 C          -0.4413    0.6752    0.2194 C.ar    1  UNL1        0.0269
     25 C          -1.4480    1.4977    0.7255 C.ar    1  UNL1        0.0380
     26 N          -2.7847    1.2335    0.7108 N.ar    1  UNL1       -0.2538
     27 H          -7.5260   -1.8587   -0.4329 H       1  UNL1        0.0623
     28 H          -8.1048    0.4143    0.7695 H       1  UNL1        0.0693
     29 H          -4.9319   -2.1096   -0.7909 H       1  UNL1        0.0629
     30 H          -2.6538   -1.7692   -0.8215 H       1  UNL1        0.0645
     31 H          -0.8301   -3.1801   -1.6985 H       1  UNL1        0.0813
     32 H           1.5335   -3.8214   -2.2338 H       1  UNL1        0.1648
     33 H           3.2563   -2.1513   -1.5414 H       1  UNL1        0.0813
     34 H           6.4410   -0.3063   -0.8906 H       1  UNL1        0.0830
     35 H           7.0276    1.8809    0.1649 H       1  UNL1        0.0633
     36 H           5.1759    3.2884    1.0426 H       1  UNL1        0.0625
     37 H           2.7070    3.5798    1.4100 H       1  UNL1        0.0836
     38 H          -1.2043    2.4533    1.1879 H       1  UNL1        0.0836
@<TRIPOS>BOND
     1     1     2   ar
     2     2     3   ar
     3     3     4   ar
     4     4     5   ar
     5     4     6    1
     6     6     7   ar
     7     7     8   ar
     8     8     9   ar
     9     9    10   ar
    10    10    11   ar
    11    11    12   ar
    12    12    13   ar
    13    13    14   ar
    14    14    15   ar
    15    15    16   ar
    16    16    17   ar
    17    17    18   ar
    18    18    19   ar
    19    19    20   ar
    20    20    21   ar
    21    21    22   ar
    22    22    23   ar
    23    23    24   ar
    24    24    25   ar
    25    25    26   ar
    26     5     1   ar
    27    26     6   ar
    28    24     8   ar
    29    13     9   ar
    30    23    14   ar
    31    20    15   ar
    32     1    27    1
    33     2    28    1
    34     5    29    1
    35     7    30    1
    36    10    31    1
    37    11    32    1
    38    12    33    1
    39    17    34    1
    40    18    35    1
    41    19    36    1
    42    21    37    1
    43    25    38    1
