@<TRIPOS>MOLECULE
*****
 34 39 0 0 0
SMALL
GASTEIGER

@<TRIPOS>ATOM
      1 C           6.4164   -0.7142   -0.6359 C.ar    1  UNL1       -0.0541
      2 C           6.3367   -2.0522   -0.3333 C.ar    1  UNL1       -0.0237
      3 S           4.7285   -2.5476   -0.0519 S.2     1  UNL1       -0.0961
      4 C           4.1001   -0.9684   -0.3316 C.ar    1  UNL1        0.0259
      5 C           5.1323   -0.0930   -0.6347 C.ar    1  UNL1       -0.0464
      6 C           2.6849   -0.6463   -0.2506 C.ar    1  UNL1        0.0271
      7 C           2.1125    0.5982   -0.4627 C.ar    1  UNL1       -0.0380
      8 C           0.7187    0.5378   -0.2999 C.ar    1  UNL1        0.0010
      9 C          -0.1882    1.6289   -0.4425 C.ar    1  UNL1        0.0084
     10 C           0.0784    2.9276   -0.7565 C.ar    1  UNL1        0.0100
     11 N          -1.1529    3.5435   -0.7598 N.ar    1  UNL1       -0.3659
     12 C          -2.1470    2.6271   -0.4517 C.ar    1  UNL1        0.0101
     13 C          -1.5625    1.3950   -0.2436 C.ar    1  UNL1        0.0103
     14 C          -2.1705    0.1779    0.0891 C.ar    1  UNL1        0.0249
     15 C          -3.5251   -0.1361    0.3034 C.ar    1  UNL1        0.0306
     16 S          -4.9309    0.8713    0.2328 S.2     1  UNL1       -0.0959
     17 C          -5.9890   -0.3975    0.6251 C.ar    1  UNL1       -0.0231
     18 C          -5.3180   -1.5790    0.8128 C.ar    1  UNL1       -0.0455
     19 C          -3.8968   -1.4518    0.6324 C.ar    1  UNL1        0.0079
     20 C          -2.8972   -2.4325    0.7407 C.ar    1  UNL1        0.0365
     21 N          -1.5951   -2.1490    0.5388 N.ar    1  UNL1       -0.2532
     22 C          -1.2392   -0.8863    0.2231 C.ar    1  UNL1        0.0870
     23 C           0.1679   -0.6883    0.0286 C.ar    1  UNL1        0.0465
     24 S           1.4759   -1.8188    0.1368 S.2     1  UNL1       -0.0856
     25 H           7.3477   -0.2037   -0.8480 H       1  UNL1        0.0623
     26 H           7.1456   -2.7664   -0.2631 H       1  UNL1        0.0693
     27 H           4.9849    0.9578   -0.8498 H       1  UNL1        0.0629
     28 H           2.6728    1.4873   -0.7182 H       1  UNL1        0.0635
     29 H           0.9846    3.4752   -0.9740 H       1  UNL1        0.0813
     30 H          -1.3142    4.5229   -0.9577 H       1  UNL1        0.1648
     31 H          -3.1698    2.9718   -0.4178 H       1  UNL1        0.0813
     32 H          -7.0534   -0.2210    0.7005 H       1  UNL1        0.0694
     33 H          -5.8164   -2.5059    1.0700 H       1  UNL1        0.0629
     34 H          -3.1217   -3.4643    0.9916 H       1  UNL1        0.0836
@<TRIPOS>BOND
     1     1     2   ar
     2     2     3   ar
     3     3     4   ar
     4     4     5   ar
     5     4     6    1
     6     6     7   ar
     7     7     8   ar
     8     8     9   ar
     9     9    10   ar
    10    10    11   ar
    11    11    12   ar
    12    12    13   ar
    13    13    14   ar
    14    14    15   ar
    15    15    16   ar
    16    16    17   ar
    17    17    18   ar
    18    18    19   ar
    19    19    20   ar
    20    20    21   ar
    21    21    22   ar
    22    22    23   ar
    23    23    24   ar
    24     5     1   ar
    25    24     6   ar
    26    23     8   ar
    27    13     9   ar
    28    22    14   ar
    29    19    15   ar
    30     1    25    1
    31     2    26    1
    32     5    27    1
    33     7    28    1
    34    10    29    1
    35    11    30    1
    36    12    31    1
    37    17    32    1
    38    18    33    1
    39    20    34    1
