@<TRIPOS>MOLECULE
*****
 41 47 0 0 0
SMALL
GASTEIGER

@<TRIPOS>ATOM
      1 SI         -5.0421    3.0095    0.1710 Si      1  UNL1        0.0000
      2 C          -5.6477    1.2937   -0.2051 C.2     1  UNL1        0.0000
      3 C          -4.6259    0.4179   -0.2550 C.ar    1  UNL1        0.0000
      4 C          -4.8274   -1.0082   -0.3586 C.ar    1  UNL1        0.0000
      5 C          -3.7853   -1.8415   -0.2261 C.ar    1  UNL1        0.0000
      6 C          -2.4253   -1.3144   -0.0720 C.ar    1  UNL1        0.0000
      7 C          -1.3177   -2.1484    0.0801 C.ar    1  UNL1        0.0000
      8 C          -1.2817   -3.5140    0.2115 C.ar    1  UNL1        0.0000
      9 O           0.0114   -3.9336    0.3428 O.2     1  UNL1        0.0000
     10 C           0.8066   -2.8241    0.2871 C.ar    1  UNL1        0.0000
     11 C           0.0318   -1.7026    0.1273 C.ar    1  UNL1        0.0000
     12 C           0.4350   -0.3732   -0.0205 C.ar    1  UNL1        0.0000
     13 C           1.7607    0.0722   -0.0377 C.ar    1  UNL1        0.0000
     14 O           2.8845   -0.6735    0.1518 O.2     1  UNL1        0.0000
     15 C           3.9767    0.1509    0.0522 C.ar    1  UNL1        0.0000
     16 C           3.5287    1.4358   -0.2130 C.ar    1  UNL1        0.0000
     17 C           2.1113    1.3909   -0.2727 C.ar    1  UNL1        0.0000
     18 C           1.0906    2.3139   -0.5267 C.ar    1  UNL1        0.0000
     19 C          -0.2512    1.8762   -0.4991 C.ar    1  UNL1        0.0000
     20 C          -0.6558    0.5501   -0.2006 C.ar    1  UNL1        0.0000
     21 C          -2.0618    0.0862   -0.1244 C.ar    1  UNL1        0.0000
     22 C          -3.2647    0.9975   -0.0785 C.ar    1  UNL1        0.0000
     23 C          -3.3054    2.3077    0.2508 C.2     1  UNL1        0.0000
     24 C           5.3233   -0.3204    0.2054 C.ar    1  UNL1        0.0000
     25 C           6.5052    0.3935    0.1311 C.ar    1  UNL1        0.0000
     26 N           7.6684   -0.3308    0.3220 N.ar    1  UNL1        0.0000
     27 C           7.3562   -1.5888    0.5397 C.ar    1  UNL1        0.0000
     28 S           5.6857   -1.9689    0.5283 S.2     1  UNL1        0.0000
     29 H          -5.5065    3.5086    1.4874 H       1  UNL1        0.0000
     30 H          -5.2131    3.9443   -0.9672 H       1  UNL1        0.0000
     31 H          -6.7009    1.0714   -0.2743 H       1  UNL1        0.0000
     32 H          -5.8329   -1.3942   -0.4900 H       1  UNL1        0.0000
     33 H          -3.9407   -2.9127   -0.2730 H       1  UNL1        0.0000
     34 H          -2.0222   -4.3003    0.2393 H       1  UNL1        0.0000
     35 H           1.8678   -3.0145    0.3671 H       1  UNL1        0.0000
     36 H           4.1495    2.3090   -0.3549 H       1  UNL1        0.0000
     37 H           1.3193    3.3500   -0.7606 H       1  UNL1        0.0000
     38 H          -0.9892    2.6199   -0.7844 H       1  UNL1        0.0000
     39 H          -2.5075    2.9565    0.5641 H       1  UNL1        0.0000
     40 H           6.5853    1.4564   -0.0616 H       1  UNL1        0.0000
     41 H           8.1070   -2.3479    0.7169 H       1  UNL1        0.0000
@<TRIPOS>BOND
     1     1     2    1
     2     2     3    2
     3     3     4   ar
     4     4     5   ar
     5     5     6   ar
     6     6     7   ar
     7     7     8   ar
     8     8     9   ar
     9     9    10   ar
    10    10    11   ar
    11    11    12   ar
    12    12    13   ar
    13    13    14   ar
    14    14    15   ar
    15    15    16   ar
    16    16    17   ar
    17    17    18   ar
    18    18    19   ar
    19    19    20   ar
    20    20    21   ar
    21    21    22   ar
    22    22    23    2
    23    15    24    1
    24    24    25   ar
    25    25    26   ar
    26    26    27   ar
    27    27    28   ar
    28    23     1    1
    29    28    24   ar
    30    22     3   ar
    31    21     6   ar
    32    11     7   ar
    33    20    12   ar
    34    17    13   ar
    35     1    29    1
    36     1    30    1
    37     2    31    1
    38     4    32    1
    39     5    33    1
    40     8    34    1
    41    10    35    1
    42    16    36    1
    43    18    37    1
    44    19    38    1
    45    23    39    1
    46    25    40    1
    47    27    41    1
