@<TRIPOS>MOLECULE
*****
 38 43 0 0 0
SMALL
GASTEIGER

@<TRIPOS>ATOM
      1 C           6.2111   -0.7053   -0.2970 C.ar    1  UNL1       -0.0541
      2 C           5.8637   -1.9374    0.1961 C.ar    1  UNL1       -0.0237
      3 S           4.1806   -2.0840    0.4029 S.2     1  UNL1       -0.0966
      4 C           3.8637   -0.4796   -0.1697 C.ar    1  UNL1        0.0215
      5 C           5.0690    0.1241   -0.5047 C.ar    1  UNL1       -0.0469
      6 C           2.4745    0.0353   -0.2372 C.ar    1  UNL1        0.0175
      7 C           1.3266   -0.7040    0.1442 C.ar    1  UNL1       -0.0430
      8 C          -0.0597   -0.2980    0.1173 C.ar    1  UNL1       -0.0068
      9 C          -1.1063   -1.1888    0.5463 C.ar    1  UNL1       -0.0095
     10 C          -0.8505   -2.5125    1.0199 C.ar    1  UNL1       -0.0534
     11 C          -1.8462   -3.3937    1.4407 C.ar    1  UNL1       -0.0611
     12 C          -3.1575   -2.9865    1.4065 C.ar    1  UNL1       -0.0611
     13 C          -3.4542   -1.7039    0.9520 C.ar    1  UNL1       -0.0534
     14 C          -2.4673   -0.7723    0.5131 C.ar    1  UNL1       -0.0096
     15 C          -2.8137    0.5410    0.0516 C.ar    1  UNL1       -0.0095
     16 C          -4.1653    0.9967    0.0029 C.ar    1  UNL1       -0.0534
     17 C          -4.5363    2.2638   -0.4391 C.ar    1  UNL1       -0.0611
     18 C          -3.5584    3.1340   -0.8542 C.ar    1  UNL1       -0.0611
     19 C          -2.2261    2.7235   -0.8207 C.ar    1  UNL1       -0.0534
     20 C          -1.7986    1.4368   -0.3765 C.ar    1  UNL1       -0.0075
     21 C          -0.4113    1.0102   -0.3419 C.ar    1  UNL1        0.0186
     22 C           0.7273    1.8328   -0.7538 C.ar    1  UNL1        0.1088
     23 N           0.6735    3.0945   -1.2225 N.ar    1  UNL1       -0.1901
     24 S           2.1983    3.6049   -1.5521 S.2     1  UNL1        0.1165
     25 N           3.0433    2.2633   -1.1250 N.ar    1  UNL1       -0.1901
     26 C           2.1655    1.3365   -0.6976 C.ar    1  UNL1        0.1087
     27 H           7.2318   -0.4063   -0.5012 H       1  UNL1        0.0623
     28 H           6.5198   -2.7600    0.4452 H       1  UNL1        0.0693
     29 H           5.1571    1.1315   -0.8902 H       1  UNL1        0.0629
     30 H           1.5389   -1.7069    0.5016 H       1  UNL1        0.0631
     31 H           0.1561   -2.9144    1.0796 H       1  UNL1        0.0624
     32 H          -1.5856   -4.3887    1.7905 H       1  UNL1        0.0618
     33 H          -3.9528   -3.6527    1.7285 H       1  UNL1        0.0618
     34 H          -4.5100   -1.4505    0.9525 H       1  UNL1        0.0624
     35 H          -4.9879    0.3613    0.3158 H       1  UNL1        0.0624
     36 H          -5.5818    2.5573   -0.4547 H       1  UNL1        0.0618
     37 H          -3.8141    4.1299   -1.2048 H       1  UNL1        0.0618
     38 H          -1.5172    3.4683   -1.1643 H       1  UNL1        0.0624
@<TRIPOS>BOND
     1     1     2   ar
     2     2     3   ar
     3     3     4   ar
     4     4     5   ar
     5     4     6    1
     6     6     7   ar
     7     7     8   ar
     8     8     9   ar
     9     9    10   ar
    10    10    11   ar
    11    11    12   ar
    12    12    13   ar
    13    13    14   ar
    14    14    15   ar
    15    15    16   ar
    16    16    17   ar
    17    17    18   ar
    18    18    19   ar
    19    19    20   ar
    20    20    21   ar
    21    21    22   ar
    22    22    23   ar
    23    23    24   ar
    24    24    25   ar
    25    25    26   ar
    26     5     1   ar
    27    26     6   ar
    28    21     8   ar
    29    26    22   ar
    30    14     9   ar
    31    20    15   ar
    32     1    27    1
    33     2    28    1
    34     5    29    1
    35     7    30    1
    36    10    31    1
    37    11    32    1
    38    12    33    1
    39    13    34    1
    40    16    35    1
    41    17    36    1
    42    18    37    1
    43    19    38    1
