@<TRIPOS>MOLECULE
*****
 37 43 0 0 0
SMALL
GASTEIGER

@<TRIPOS>ATOM
      1 C           6.4454   -0.0024    0.2094 C.ar    1  UNL1       -0.0541
      2 C           6.2884    1.2302   -0.3807 C.ar    1  UNL1       -0.0237
      3 S           4.6425    1.6165   -0.6262 S.2     1  UNL1       -0.0952
      4 C           4.1143    0.1312    0.0576 C.ar    1  UNL1        0.0355
      5 C           5.1920   -0.6348    0.4616 C.ar    1  UNL1       -0.0455
      6 C           2.7195   -0.2075    0.1653 C.ar    1  UNL1        0.0542
      7 C           2.1227   -1.3490    0.6836 C.ar    1  UNL1       -0.0275
      8 C           0.7541   -1.1445    0.5348 C.ar    1  UNL1        0.0117
      9 C          -0.3454   -1.9643    0.8816 C.ar    1  UNL1        0.0297
     10 C          -0.3760   -3.1908    1.4617 C.ar    1  UNL1        0.1000
     11 O          -1.6938   -3.5473    1.5807 O.2     1  UNL1       -0.4698
     12 C          -2.4505   -2.5204    1.0653 C.ar    1  UNL1        0.1001
     13 C          -1.6478   -1.4967    0.6106 C.ar    1  UNL1        0.0303
     14 C          -2.0101   -0.2771    0.0189 C.ar    1  UNL1        0.0209
     15 C          -3.3053    0.2026   -0.2576 C.ar    1  UNL1        0.0572
     16 N          -4.5749   -0.3075   -0.0640 N.ar    1  UNL1       -0.3601
     17 C          -5.5325    0.5748   -0.5185 C.ar    1  UNL1        0.0028
     18 C          -4.8993    1.6894   -1.0227 C.ar    1  UNL1       -0.0345
     19 C          -3.5370    1.4340   -0.8500 C.ar    1  UNL1        0.0284
     20 C          -2.4409    2.2795   -1.2091 C.ar    1  UNL1        0.1097
     21 N          -2.6075    3.4643   -1.7769 N.ar    1  UNL1       -0.1901
     22 S          -1.0315    3.9960   -1.9692 S.2     1  UNL1        0.1165
     23 N          -0.1842    2.7020   -1.3238 N.ar    1  UNL1       -0.1901
     24 C          -1.1023    1.7897   -0.9262 C.ar    1  UNL1        0.1103
     25 C          -0.8537    0.5283   -0.3190 C.ar    1  UNL1        0.0368
     26 C           0.4650    0.0712   -0.0523 C.ar    1  UNL1        0.0576
     27 N           1.7070    0.6319   -0.2710 N.ar    1  UNL1       -0.3532
     28 H           7.4103   -0.4316    0.4495 H       1  UNL1        0.0623
     29 H           7.0610    1.9248   -0.6806 H       1  UNL1        0.0693
     30 H           5.0944   -1.6108    0.9204 H       1  UNL1        0.0629
     31 H           2.6313   -2.2034    1.1078 H       1  UNL1        0.0645
     32 H           0.3485   -3.9035    1.8269 H       1  UNL1        0.1036
     33 H          -3.5118   -2.7040    1.1120 H       1  UNL1        0.1036
     34 H          -4.7873   -1.2016    0.3517 H       1  UNL1        0.1654
     35 H          -6.5833    0.3276   -0.4412 H       1  UNL1        0.0807
     36 H          -5.3712    2.5627   -1.4545 H       1  UNL1        0.0639
     37 H           1.8499    1.5400   -0.6959 H       1  UNL1        0.1659
@<TRIPOS>BOND
     1     1     2   ar
     2     2     3   ar
     3     3     4   ar
     4     4     5   ar
     5     4     6    1
     6     6     7   ar
     7     7     8   ar
     8     8     9   ar
     9     9    10   ar
    10    10    11   ar
    11    11    12   ar
    12    12    13   ar
    13    13    14   ar
    14    14    15   ar
    15    15    16   ar
    16    16    17   ar
    17    17    18   ar
    18    18    19   ar
    19    19    20   ar
    20    20    21   ar
    21    21    22   ar
    22    22    23   ar
    23    23    24   ar
    24    24    25   ar
    25    25    26   ar
    26    26    27   ar
    27     5     1   ar
    28    27     6   ar
    29    26     8   ar
    30    13     9   ar
    31    25    14   ar
    32    19    15   ar
    33    24    20   ar
    34     1    28    1
    35     2    29    1
    36     5    30    1
    37     7    31    1
    38    10    32    1
    39    12    33    1
    40    16    34    1
    41    17    35    1
    42    18    36    1
    43    27    37    1
