@<TRIPOS>MOLECULE
*****
 38 43 0 0 0
SMALL
GASTEIGER

@<TRIPOS>ATOM
      1 C           3.7779    3.5280    3.8036 C.ar    1  UNL1       -0.0541
      2 C           4.8526    3.1112    3.0510 C.ar    1  UNL1       -0.0237
      3 S           4.4023    1.9556    1.8737 S.2     1  UNL1       -0.0966
      4 C           2.7611    1.9964    2.3661 C.ar    1  UNL1        0.0199
      5 C           2.5692    2.8854    3.4065 C.ar    1  UNL1       -0.0469
      6 C           1.7873    1.1560    1.6903 C.ar    1  UNL1       -0.0025
      7 C           1.4260    1.3149    0.3300 C.ar    1  UNL1       -0.0452
      8 C           0.4503    0.5192   -0.3617 C.ar    1  UNL1       -0.0161
      9 C           0.1766    0.7750   -1.7155 C.ar    1  UNL1       -0.0462
     10 C          -0.7688    0.0321   -2.4474 C.ar    1  UNL1       -0.0153
     11 C          -1.0208    0.3103   -3.7969 C.ar    1  UNL1       -0.0533
     12 C          -1.9601   -0.4248   -4.5315 C.ar    1  UNL1       -0.0520
     13 C          -2.6696   -1.4666   -3.9075 C.ar    1  UNL1        0.0003
     14 C          -3.6633   -2.3806   -4.3548 C.ar    1  UNL1       -0.0366
     15 C          -3.9969   -3.1881   -3.2935 C.ar    1  UNL1        0.0027
     16 N          -3.2426   -2.7979   -2.2197 N.ar    1  UNL1       -0.3602
     17 C          -2.4188   -1.7450   -2.5618 C.ar    1  UNL1        0.0543
     18 C          -1.4710   -1.0111   -1.8004 C.ar    1  UNL1        0.0066
     19 C          -1.2254   -1.2985   -0.4457 C.ar    1  UNL1       -0.0437
     20 C          -0.2713   -0.5399    0.2737 C.ar    1  UNL1       -0.0090
     21 C           0.0955   -0.7009    1.6427 C.ar    1  UNL1       -0.0026
     22 C          -0.4424   -1.6502    2.4817 C.ar    1  UNL1       -0.0160
     23 S           0.2370   -1.5738    4.0566 S.2     1  UNL1       -0.1038
     24 C           1.2628   -0.2673    3.6268 C.ar    1  UNL1       -0.0160
     25 C           1.0833    0.1162    2.3168 C.ar    1  UNL1       -0.0021
     26 H           3.8539    4.2595    4.5988 H       1  UNL1        0.0623
     27 H           5.8827    3.4300    3.1324 H       1  UNL1        0.0693
     28 H           1.6028    3.0688    3.8614 H       1  UNL1        0.0629
     29 H           1.9259    2.1097   -0.2284 H       1  UNL1        0.0630
     30 H           0.7143    1.5767   -2.2211 H       1  UNL1        0.0630
     31 H          -0.4840    1.1112   -4.3015 H       1  UNL1        0.0624
     32 H          -2.1375   -0.1897   -5.5770 H       1  UNL1        0.0624
     33 H          -4.0862   -2.4379   -5.3491 H       1  UNL1        0.0638
     34 H          -4.7027   -4.0035   -3.2099 H       1  UNL1        0.0807
     35 H          -3.2815   -3.2205   -1.3035 H       1  UNL1        0.1653
     36 H          -1.7629   -2.0981    0.0501 H       1  UNL1        0.0630
     37 H          -1.1947   -2.3975    2.2768 H       1  UNL1        0.0700
     38 H           1.9391    0.1357    4.3681 H       1  UNL1        0.0700
@<TRIPOS>BOND
     1     1     2   ar
     2     2     3   ar
     3     3     4   ar
     4     4     5   ar
     5     4     6    1
     6     6     7   ar
     7     7     8   ar
     8     8     9   ar
     9     9    10   ar
    10    10    11   ar
    11    11    12   ar
    12    12    13   ar
    13    13    14   ar
    14    14    15   ar
    15    15    16   ar
    16    16    17   ar
    17    17    18   ar
    18    18    19   ar
    19    19    20   ar
    20    20    21   ar
    21    21    22   ar
    22    22    23   ar
    23    23    24   ar
    24    24    25   ar
    25     5     1   ar
    26    25     6   ar
    27    20     8   ar
    28    25    21   ar
    29    18    10   ar
    30    17    13   ar
    31     1    26    1
    32     2    27    1
    33     5    28    1
    34     7    29    1
    35     9    30    1
    36    11    31    1
    37    12    32    1
    38    14    33    1
    39    15    34    1
    40    16    35    1
    41    19    36    1
    42    22    37    1
    43    24    38    1
