@<TRIPOS>MOLECULE
*****
 38 43 0 0 0
SMALL
GASTEIGER

@<TRIPOS>ATOM
      1 C           6.3003   -0.7108    0.6194 C.ar    1  UNL1       -0.0541
      2 C           6.6355    0.0730   -0.4547 C.ar    1  UNL1       -0.0237
      3 S           5.2571    0.6993   -1.2299 S.2     1  UNL1       -0.0966
      4 C           4.1580   -0.0614   -0.1486 C.ar    1  UNL1        0.0200
      5 C           4.8870   -0.7860    0.7919 C.ar    1  UNL1       -0.0469
      6 C           2.6878    0.0649   -0.2449 C.ar    1  UNL1       -0.0016
      7 C           1.8198   -0.5900    0.6823 C.ar    1  UNL1       -0.0451
      8 C           0.3770   -0.5512    0.7026 C.ar    1  UNL1       -0.0146
      9 C          -0.2981   -1.2634    1.6975 C.ar    1  UNL1       -0.0532
     10 C          -1.6888   -1.2652    1.7700 C.ar    1  UNL1       -0.0500
     11 C          -2.4425   -0.5398    0.8293 C.ar    1  UNL1        0.0249
     12 C          -3.8559   -0.5311    0.8888 C.ar    1  UNL1        0.0572
     13 N          -4.7455   -1.1371    1.7511 N.ar    1  UNL1       -0.3601
     14 C          -6.0341   -0.8307    1.4027 C.ar    1  UNL1        0.0028
     15 C          -5.9863   -0.0135    0.2978 C.ar    1  UNL1       -0.0352
     16 C          -4.6175    0.1821   -0.0351 C.ar    1  UNL1        0.0184
     17 C          -3.9511    0.8945   -1.0297 C.ar    1  UNL1        0.0374
     18 N          -2.5964    0.8919   -1.0945 N.ar    1  UNL1       -0.2536
     19 C          -1.8376    0.2043   -0.2051 C.ar    1  UNL1        0.0813
     20 C          -0.4088    0.1824   -0.2475 C.ar    1  UNL1        0.0173
     21 C           0.4603    0.8339   -1.1702 C.ar    1  UNL1        0.0097
     22 C           0.0691    1.6284   -2.2224 C.ar    1  UNL1        0.0101
     23 N           1.1987    2.0609   -2.8627 N.ar    1  UNL1       -0.3659
     24 C           2.3156    1.5556   -2.2374 C.ar    1  UNL1        0.0100
     25 C           1.9088    0.7817   -1.1728 C.ar    1  UNL1        0.0083
     26 H           7.0267   -1.2064    1.2513 H       1  UNL1        0.0623
     27 H           7.6248    0.3084   -0.8220 H       1  UNL1        0.0693
     28 H           4.4367   -1.3610    1.5902 H       1  UNL1        0.0629
     29 H           2.2859   -1.1883    1.4660 H       1  UNL1        0.0630
     30 H           0.2570   -1.8345    2.4400 H       1  UNL1        0.0624
     31 H          -2.1664   -1.8341    2.5615 H       1  UNL1        0.0625
     32 H          -4.4830   -1.7243    2.5301 H       1  UNL1        0.1654
     33 H          -6.8700   -1.2193    1.9691 H       1  UNL1        0.0807
     34 H          -6.8426    0.4010   -0.2183 H       1  UNL1        0.0639
     35 H          -4.4655    1.4748   -1.7867 H       1  UNL1        0.0836
     36 H          -0.9063    1.9295   -2.5794 H       1  UNL1        0.0813
     37 H           1.2103    2.6629   -3.6755 H       1  UNL1        0.1648
     38 H           3.2801    1.8182   -2.6403 H       1  UNL1        0.0813
@<TRIPOS>BOND
     1     1     2   ar
     2     2     3   ar
     3     3     4   ar
     4     4     5   ar
     5     4     6    1
     6     6     7   ar
     7     7     8   ar
     8     8     9   ar
     9     9    10   ar
    10    10    11   ar
    11    11    12   ar
    12    12    13   ar
    13    13    14   ar
    14    14    15   ar
    15    15    16   ar
    16    16    17   ar
    17    17    18   ar
    18    18    19   ar
    19    19    20   ar
    20    20    21   ar
    21    21    22   ar
    22    22    23   ar
    23    23    24   ar
    24    24    25   ar
    25     5     1   ar
    26    25     6   ar
    27    20     8   ar
    28    25    21   ar
    29    19    11   ar
    30    16    12   ar
    31     1    26    1
    32     2    27    1
    33     5    28    1
    34     7    29    1
    35     9    30    1
    36    10    31    1
    37    13    32    1
    38    14    33    1
    39    15    34    1
    40    17    35    1
    41    22    36    1
    42    23    37    1
    43    24    38    1
