@<TRIPOS>MOLECULE
*****
 38 44 0 0 0
SMALL
GASTEIGER

@<TRIPOS>ATOM
      1 C           6.4344    1.4009   -0.0511 C.ar    1  UNL1       -0.0540
      2 C           7.1130    0.2070    0.0365 C.ar    1  UNL1       -0.0236
      3 S           6.0497   -1.1297    0.1069 S.2     1  UNL1       -0.0936
      4 C           4.6638   -0.1246    0.0206 C.ar    1  UNL1        0.0545
      5 C           5.0218    1.2084   -0.0603 C.ar    1  UNL1       -0.0440
      6 C           3.3213   -0.6441    0.0337 C.ar    1  UNL1        0.1443
      7 C           2.8754   -1.9559    0.1119 C.ar    1  UNL1        0.0108
      8 C           1.4658   -1.9211    0.0881 C.ar    1  UNL1        0.1101
      9 N           0.5671   -2.9283    0.1396 N.ar    1  UNL1       -0.2511
     10 C          -0.7358   -2.5212    0.0933 C.ar    1  UNL1        0.0369
     11 C          -1.2481   -1.2058    0.0003 C.ar    1  UNL1        0.0142
     12 C          -0.2299   -0.2048   -0.0490 C.ar    1  UNL1        0.0378
     13 C          -0.7209    1.0989   -0.1409 C.ar    1  UNL1        0.0113
     14 C           0.0060    2.2638   -0.2052 C.ar    1  UNL1        0.0101
     15 N          -0.8878    3.3057   -0.2864 N.ar    1  UNL1       -0.3659
     16 C          -2.1769    2.8211   -0.2747 C.ar    1  UNL1        0.0100
     17 C          -2.1035    1.4496   -0.1848 C.ar    1  UNL1        0.0079
     18 C          -3.1829    0.5386   -0.1422 C.ar    1  UNL1       -0.0059
     19 C          -4.5540    0.9490   -0.1898 C.ar    1  UNL1       -0.0512
     20 C          -5.6135    0.0429   -0.1473 C.ar    1  UNL1       -0.0329
     21 C          -5.2545   -1.3166   -0.0537 C.ar    1  UNL1        0.1005
     22 N          -6.1364   -2.3267   -0.0018 N.ar    1  UNL1       -0.1908
     23 S          -5.2544   -3.7212    0.1020 S.2     1  UNL1        0.1165
     24 N          -3.7188   -3.1103    0.0859 N.ar    1  UNL1       -0.1901
     25 C          -3.8044   -1.7697   -0.0022 C.ar    1  UNL1        0.1082
     26 C          -2.6963   -0.8333   -0.0460 C.ar    1  UNL1        0.0202
     27 C           1.1068   -0.5895   -0.0037 C.ar    1  UNL1        0.1622
     28 O           2.2248    0.1864   -0.0368 O.2     1  UNL1       -0.4521
     29 H           6.9252    2.3649   -0.1061 H       1  UNL1        0.0623
     30 H           8.1831    0.0525    0.0629 H       1  UNL1        0.0693
     31 H           4.2983    2.0127   -0.1234 H       1  UNL1        0.0630
     32 H           3.4890   -2.8420    0.1787 H       1  UNL1        0.0677
     33 H          -1.4068   -3.3750    0.1384 H       1  UNL1        0.0836
     34 H           1.0699    2.4593   -0.2017 H       1  UNL1        0.0813
     35 H          -0.6340    4.2837   -0.3459 H       1  UNL1        0.1648
     36 H          -3.0089    3.5090   -0.3320 H       1  UNL1        0.0813
     37 H          -4.7985    2.0076   -0.2621 H       1  UNL1        0.0624
     38 H          -6.6492    0.3577   -0.1835 H       1  UNL1        0.0640
@<TRIPOS>BOND
     1     1     2   ar
     2     2     3   ar
     3     3     4   ar
     4     4     5   ar
     5     4     6    1
     6     6     7   ar
     7     7     8   ar
     8     8     9   ar
     9     9    10   ar
    10    10    11   ar
    11    11    12   ar
    12    12    13   ar
    13    13    14   ar
    14    14    15   ar
    15    15    16   ar
    16    16    17   ar
    17    17    18   ar
    18    18    19   ar
    19    19    20   ar
    20    20    21   ar
    21    21    22   ar
    22    22    23   ar
    23    23    24   ar
    24    24    25   ar
    25    25    26   ar
    26    12    27   ar
    27    27    28   ar
    28     5     1   ar
    29    28     6   ar
    30    27     8   ar
    31    26    11   ar
    32    17    13   ar
    33    26    18   ar
    34    25    21   ar
    35     1    29    1
    36     2    30    1
    37     5    31    1
    38     7    32    1
    39    10    33    1
    40    14    34    1
    41    15    35    1
    42    16    36    1
    43    19    37    1
    44    20    38    1
