@<TRIPOS>MOLECULE
*****
 45 51 0 0 0
SMALL
GASTEIGER

@<TRIPOS>ATOM
      1 C          -7.0853    0.7169   -0.0924 C.ar    1  UNL1       -0.0541
      2 C          -7.0835    1.2559    1.1738 C.ar    1  UNL1       -0.0237
      3 S          -5.5023    1.4008    1.8069 S.2     1  UNL1       -0.0966
      4 C          -4.7981    0.7382    0.3895 C.ar    1  UNL1        0.0200
      5 C          -5.7669    0.4188   -0.5442 C.ar    1  UNL1       -0.0469
      6 C          -3.3567    0.5811    0.2986 C.ar    1  UNL1       -0.0001
      7 C          -2.4051    1.5921    0.5547 C.ar    1  UNL1       -0.0269
      8 C          -0.9936    1.4511    0.4699 C.ar    1  UNL1        0.0728
      9 N          -0.3018    2.5062    0.8804 N.ar    1  UNL1       -0.2542
     10 C           1.0471    2.4083    0.9307 C.ar    1  UNL1        0.0380
     11 C           1.8200    1.3475    0.4542 C.ar    1  UNL1        0.0274
     12 C           3.2144    1.3825    0.6029 C.ar    1  UNL1        0.0807
     13 N           3.7832    2.3985    1.2994 N.ar    1  UNL1       -0.2543
     14 C           5.1147    2.4180    1.4967 C.ar    1  UNL1        0.0283
     15 C           5.9557    1.4467    1.0200 C.ar    1  UNL1       -0.0430
     16 C           5.3867    0.4121    0.2884 C.ar    1  UNL1       -0.0505
     17 C           3.9899    0.3474    0.0440 C.ar    1  UNL1        0.0087
     18 C           3.3639   -0.6541   -0.7631 C.ar    1  UNL1       -0.0081
     19 C           4.1048   -1.6456   -1.4636 C.ar    1  UNL1       -0.0534
     20 C           3.5138   -2.5358   -2.3576 C.ar    1  UNL1       -0.0611
     21 C           2.1613   -2.4402   -2.6035 C.ar    1  UNL1       -0.0611
     22 C           1.4072   -1.4978   -1.9053 C.ar    1  UNL1       -0.0534
     23 C           1.9517   -0.6405   -0.9177 C.ar    1  UNL1       -0.0088
     24 C           1.1397    0.2819   -0.1643 C.ar    1  UNL1        0.0031
     25 C          -0.3189    0.2677    0.0137 C.ar    1  UNL1        0.0179
     26 C          -1.2929   -0.7791   -0.1134 C.ar    1  UNL1        0.0098
     27 C          -1.0652   -2.1358   -0.1804 C.ar    1  UNL1        0.0101
     28 N          -2.2836   -2.7741   -0.2433 N.ar    1  UNL1       -0.3659
     29 C          -3.2983   -1.8568   -0.1179 C.ar    1  UNL1        0.0100
     30 C          -2.7137   -0.6190    0.0102 C.ar    1  UNL1        0.0083
     31 H          -7.9868    0.5472   -0.6679 H       1  UNL1        0.0623
     32 H          -7.9338    1.5754    1.7602 H       1  UNL1        0.0693
     33 H          -5.5371   -0.0056   -1.5143 H       1  UNL1        0.0629
     34 H          -2.7744    2.5715    0.8663 H       1  UNL1        0.0645
     35 H           1.5184    3.2818    1.3812 H       1  UNL1        0.0836
     36 H           5.4891    3.2615    2.0690 H       1  UNL1        0.0830
     37 H           7.0232    1.4908    1.2003 H       1  UNL1        0.0633
     38 H           6.0633   -0.3459   -0.0933 H       1  UNL1        0.0625
     39 H           5.1826   -1.7248   -1.3535 H       1  UNL1        0.0624
     40 H           4.1203   -3.2655   -2.8868 H       1  UNL1        0.0618
     41 H           1.6867   -3.0818   -3.3407 H       1  UNL1        0.0618
     42 H           0.3594   -1.4114   -2.1850 H       1  UNL1        0.0624
     43 H          -0.1595   -2.7261   -0.1643 H       1  UNL1        0.0813
     44 H          -2.4108   -3.7766   -0.2990 H       1  UNL1        0.1648
     45 H          -4.3288   -2.1835   -0.0740 H       1  UNL1        0.0813
@<TRIPOS>BOND
     1     1     2   ar
     2     2     3   ar
     3     3     4   ar
     4     4     5   ar
     5     4     6    1
     6     6     7   ar
     7     7     8   ar
     8     8     9   ar
     9     9    10   ar
    10    10    11   ar
    11    11    12   ar
    12    12    13   ar
    13    13    14   ar
    14    14    15   ar
    15    15    16   ar
    16    16    17   ar
    17    17    18   ar
    18    18    19   ar
    19    19    20   ar
    20    20    21   ar
    21    21    22   ar
    22    22    23   ar
    23    23    24   ar
    24    24    25   ar
    25    25    26   ar
    26    26    27   ar
    27    27    28   ar
    28    28    29   ar
    29    29    30   ar
    30     5     1   ar
    31    30     6   ar
    32    25     8   ar
    33    30    26   ar
    34    24    11   ar
    35    17    12   ar
    36    23    18   ar
    37     1    31    1
    38     2    32    1
    39     5    33    1
    40     7    34    1
    41    10    35    1
    42    14    36    1
    43    15    37    1
    44    16    38    1
    45    19    39    1
    46    20    40    1
    47    21    41    1
    48    22    42    1
    49    27    43    1
    50    28    44    1
    51    29    45    1
