@<TRIPOS>MOLECULE
*****
 34 39 0 0 0
SMALL
GASTEIGER

@<TRIPOS>ATOM
      1 C           6.7661    0.1417   -0.7529 C.ar    1  UNL1       -0.0541
      2 C           6.9962    0.3899    0.5790 C.ar    1  UNL1       -0.0237
      3 S           5.5440    0.4880    1.4694 S.2     1  UNL1       -0.0961
      4 C           4.5697    0.1976    0.0773 C.ar    1  UNL1        0.0260
      5 C           5.3731    0.0314   -1.0403 C.ar    1  UNL1       -0.0464
      6 C           3.1181    0.1510    0.1592 C.ar    1  UNL1        0.0301
      7 C           2.3353    0.3211    1.2936 C.ar    1  UNL1       -0.0034
      8 C           0.9741    0.2032    0.9559 C.ar    1  UNL1        0.1439
      9 O          -0.1762    0.2896    1.7095 O.2     1  UNL1       -0.4536
     10 C          -1.2085    0.0873    0.8231 C.ar    1  UNL1        0.1451
     11 C          -0.6823   -0.1134   -0.4213 C.ar    1  UNL1        0.0433
     12 C          -1.5107   -0.3483   -1.5379 C.ar    1  UNL1        0.0016
     13 C          -1.1340   -0.5636   -2.8292 C.ar    1  UNL1       -0.0159
     14 S          -2.5500   -0.7943   -3.7834 S.2     1  UNL1       -0.1038
     15 C          -3.5992   -0.5949   -2.4224 C.ar    1  UNL1       -0.0160
     16 C          -2.9071   -0.3563   -1.2534 C.ar    1  UNL1       -0.0023
     17 C          -3.5278   -0.1540    0.0223 C.ar    1  UNL1       -0.0061
     18 C          -4.9113   -0.1605    0.3125 C.ar    1  UNL1       -0.0533
     19 C          -5.3552    0.0550    1.6203 C.ar    1  UNL1       -0.0611
     20 C          -4.4420    0.2787    2.6543 C.ar    1  UNL1       -0.0611
     21 C          -3.0697    0.2908    2.3984 C.ar    1  UNL1       -0.0505
     22 C          -2.6017    0.0765    1.0914 C.ar    1  UNL1        0.0256
     23 C           0.7026   -0.0433   -0.3565 C.ar    1  UNL1        0.0663
     24 S           2.1606   -0.1449   -1.2673 S.2     1  UNL1       -0.0838
     25 H           7.5554    0.0434   -1.4881 H       1  UNL1        0.0623
     26 H           7.9488    0.5188    1.0744 H       1  UNL1        0.0693
     27 H           4.9907   -0.1628   -2.0351 H       1  UNL1        0.0629
     28 H           2.7022    0.5154    2.2921 H       1  UNL1        0.0666
     29 H          -0.1535   -0.6032   -3.2813 H       1  UNL1        0.0700
     30 H          -4.6654   -0.6684   -2.5819 H       1  UNL1        0.0700
     31 H          -5.6456   -0.3314   -0.4689 H       1  UNL1        0.0624
     32 H          -6.4212    0.0486    1.8360 H       1  UNL1        0.0618
     33 H          -4.8026    0.4448    3.6669 H       1  UNL1        0.0618
     34 H          -2.3727    0.4664    3.2149 H       1  UNL1        0.0625
@<TRIPOS>BOND
     1     1     2   ar
     2     2     3   ar
     3     3     4   ar
     4     4     5   ar
     5     4     6    1
     6     6     7   ar
     7     7     8   ar
     8     8     9   ar
     9     9    10   ar
    10    10    11   ar
    11    11    12   ar
    12    12    13   ar
    13    13    14   ar
    14    14    15   ar
    15    15    16   ar
    16    16    17   ar
    17    17    18   ar
    18    18    19   ar
    19    19    20   ar
    20    20    21   ar
    21    21    22   ar
    22    11    23   ar
    23    23    24   ar
    24     5     1   ar
    25    24     6   ar
    26    23     8   ar
    27    22    10   ar
    28    16    12   ar
    29    22    17   ar
    30     1    25    1
    31     2    26    1
    32     5    27    1
    33     7    28    1
    34    13    29    1
    35    15    30    1
    36    18    31    1
    37    19    32    1
    38    20    33    1
    39    21    34    1
