@<TRIPOS>MOLECULE
*****
 38 44 0 0 0
SMALL
GASTEIGER

@<TRIPOS>ATOM
      1 C          -7.0842   -1.2189   -0.1108 C.ar    1  UNL1       -0.0541
      2 C          -6.5620   -2.4620   -0.3641 C.ar    1  UNL1       -0.0237
      3 S          -4.8597   -2.4446   -0.3666 S.2     1  UNL1       -0.0966
      4 C          -4.7730   -0.7489   -0.0240 C.ar    1  UNL1        0.0215
      5 C          -6.0617   -0.2429    0.0830 C.ar    1  UNL1       -0.0469
      6 C          -3.4558   -0.0777    0.1071 C.ar    1  UNL1        0.0204
      7 C          -2.2155   -0.7743   -0.0383 C.ar    1  UNL1       -0.0083
      8 C          -1.0134   -0.0758    0.0987 C.ar    1  UNL1        0.1396
      9 O           0.2543   -0.5797   -0.0078 O.2     1  UNL1       -0.4535
     10 C           1.0985    0.4957    0.2068 C.ar    1  UNL1        0.1516
     11 C           0.3897    1.6388    0.4406 C.ar    1  UNL1        0.0684
     12 S           1.4388    2.9733    0.7069 S.2     1  UNL1       -0.0842
     13 C           2.8317    1.9498    0.4948 C.ar    1  UNL1        0.0241
     14 C           4.1711    2.3764    0.5763 C.ar    1  UNL1       -0.0467
     15 C           5.1972    1.4485    0.3849 C.ar    1  UNL1       -0.0529
     16 C           4.9203    0.1075    0.1145 C.ar    1  UNL1       -0.0171
     17 C           5.9564   -0.8203   -0.0769 C.ar    1  UNL1       -0.0540
     18 C           5.6757   -2.1610   -0.3472 C.ar    1  UNL1       -0.0612
     19 C           4.3560   -2.5947   -0.4302 C.ar    1  UNL1       -0.0611
     20 C           3.3103   -1.6897   -0.2433 C.ar    1  UNL1       -0.0533
     21 C           3.5755   -0.3304    0.0308 C.ar    1  UNL1       -0.0061
     22 C           2.5149    0.6108    0.2250 C.ar    1  UNL1        0.0398
     23 C          -0.9412    1.2512    0.3670 C.ar    1  UNL1        0.0627
     24 C          -2.0862    2.0441    0.5315 C.ar    1  UNL1        0.1123
     25 N          -2.0574    3.3387    0.7934 N.ar    1  UNL1       -0.1900
     26 S          -3.6834    3.7206    0.8765 S.2     1  UNL1        0.1165
     27 N          -4.3661    2.2249    0.5763 N.ar    1  UNL1       -0.1901
     28 C          -3.3651    1.3352    0.3927 C.ar    1  UNL1        0.1089
     29 H          -8.1464   -1.0122   -0.0652 H       1  UNL1        0.0623
     30 H          -7.1001   -3.3818   -0.5482 H       1  UNL1        0.0693
     31 H          -6.2932    0.7931    0.2933 H       1  UNL1        0.0629
     32 H          -2.1744   -1.8369   -0.2534 H       1  UNL1        0.0661
     33 H           4.4083    3.4164    0.7859 H       1  UNL1        0.0629
     34 H           6.2274    1.7940    0.4511 H       1  UNL1        0.0624
     35 H           6.9961   -0.5055   -0.0169 H       1  UNL1        0.0624
     36 H           6.4896   -2.8667   -0.4929 H       1  UNL1        0.0618
     37 H           4.1380   -3.6386   -0.6406 H       1  UNL1        0.0618
     38 H           2.2894   -2.0567   -0.3139 H       1  UNL1        0.0624
@<TRIPOS>BOND
     1     1     2   ar
     2     2     3   ar
     3     3     4   ar
     4     4     5   ar
     5     4     6    1
     6     6     7   ar
     7     7     8   ar
     8     8     9   ar
     9     9    10   ar
    10    10    11   ar
    11    11    12   ar
    12    12    13   ar
    13    13    14   ar
    14    14    15   ar
    15    15    16   ar
    16    16    17   ar
    17    17    18   ar
    18    18    19   ar
    19    19    20   ar
    20    20    21   ar
    21    21    22   ar
    22    11    23   ar
    23    23    24   ar
    24    24    25   ar
    25    25    26   ar
    26    26    27   ar
    27    27    28   ar
    28     5     1   ar
    29    28     6   ar
    30    23     8   ar
    31    28    24   ar
    32    22    10   ar
    33    22    13   ar
    34    21    16   ar
    35     1    29    1
    36     2    30    1
    37     5    31    1
    38     7    32    1
    39    14    33    1
    40    15    34    1
    41    17    35    1
    42    18    36    1
    43    19    37    1
    44    20    38    1
