@<TRIPOS>MOLECULE
*****
 30 35 0 0 0
SMALL
GASTEIGER

@<TRIPOS>ATOM
      1 C           5.8871   -0.1299   -0.2350 C.ar    1  UNL1       -0.0541
      2 C           5.7874    0.9159    0.6474 C.ar    1  UNL1       -0.0237
      3 S           4.1652    1.3135    0.9762 S.2     1  UNL1       -0.0966
      4 C           3.5420    0.0797   -0.0680 C.ar    1  UNL1        0.0215
      5 C           4.6049   -0.6054   -0.6418 C.ar    1  UNL1       -0.0469
      6 C           2.0762   -0.0993   -0.2254 C.ar    1  UNL1        0.0204
      7 C           1.1220    0.7186    0.4606 C.ar    1  UNL1       -0.0082
      8 C          -0.2447    0.4979    0.2685 C.ar    1  UNL1        0.1423
      9 O          -1.3006    1.1967    0.8536 O.2     1  UNL1       -0.4493
     10 C          -2.3605    0.5655    0.3164 C.ar    1  UNL1        0.1980
     11 C          -3.6541    0.7170    0.4386 C.ar    1  UNL1        0.1286
     12 N          -4.5096    1.5006    1.0960 N.ar    1  UNL1       -0.3552
     13 C          -5.7565    1.0294    0.6930 C.ar    1  UNL1        0.0059
     14 C          -5.6248   -0.0383   -0.2073 C.ar    1  UNL1       -0.0012
     15 C          -4.2331   -0.1997   -0.3374 C.ar    1  UNL1        0.1569
     16 O          -3.2809   -0.9520   -0.9680 O.2     1  UNL1       -0.4492
     17 C          -2.1014   -0.4348   -0.5265 C.ar    1  UNL1        0.1855
     18 C          -0.7292   -0.4865   -0.5642 C.ar    1  UNL1        0.0913
     19 C           0.1036   -1.3454   -1.2854 C.ar    1  UNL1        0.1148
     20 N          -0.3345   -2.2966   -2.0898 N.ar    1  UNL1       -0.1899
     21 S           1.0903   -2.9689   -2.6508 S.2     1  UNL1        0.1165
     22 N           2.2126   -2.0240   -1.8487 N.ar    1  UNL1       -0.1901
     23 C           1.5423   -1.1253   -1.0934 C.ar    1  UNL1        0.1090
     24 H           6.8300   -0.5392   -0.5764 H       1  UNL1        0.0623
     25 H           6.5918    1.4665    1.1156 H       1  UNL1        0.0693
     26 H           4.4951   -1.4278   -1.3365 H       1  UNL1        0.0629
     27 H           1.4262    1.5140    1.1330 H       1  UNL1        0.0661
     28 H          -4.2790    2.2544    1.7330 H       1  UNL1        0.1655
     29 H          -6.6493    1.4998    1.0860 H       1  UNL1        0.0808
     30 H          -6.4187   -0.5966   -0.6818 H       1  UNL1        0.0669
@<TRIPOS>BOND
     1     1     2   ar
     2     2     3   ar
     3     3     4   ar
     4     4     5   ar
     5     4     6    1
     6     6     7   ar
     7     7     8   ar
     8     8     9   ar
     9     9    10   ar
    10    10    11   ar
    11    11    12   ar
    12    12    13   ar
    13    13    14   ar
    14    14    15   ar
    15    15    16   ar
    16    16    17   ar
    17    17    18   ar
    18    18    19   ar
    19    19    20   ar
    20    20    21   ar
    21    21    22   ar
    22    22    23   ar
    23     5     1   ar
    24    23     6   ar
    25    18     8   ar
    26    23    19   ar
    27    17    10   ar
    28    15    11   ar
    29     1    24    1
    30     2    25    1
    31     5    26    1
    32     7    27    1
    33    12    28    1
    34    13    29    1
    35    14    30    1
