@<TRIPOS>MOLECULE
*****
 31 36 0 0 0
SMALL
GASTEIGER

@<TRIPOS>ATOM
      1 C           6.4427   -0.9301    0.0059 C.ar    1  UNL1       -0.0541
      2 C           6.5699    0.2182    0.7497 C.ar    1  UNL1       -0.0237
      3 S           5.0589    0.9462    1.0614 S.2     1  UNL1       -0.0961
      4 C           4.1956   -0.2705    0.2001 C.ar    1  UNL1        0.0260
      5 C           5.0799   -1.2099   -0.3090 C.ar    1  UNL1       -0.0464
      6 C           2.7470   -0.2728    0.0531 C.ar    1  UNL1        0.0301
      7 C           2.0043   -1.2278   -0.6294 C.ar    1  UNL1       -0.0034
      8 C           0.6355   -0.9070   -0.5627 C.ar    1  UNL1        0.1440
      9 O          -0.4867   -1.5285   -1.0710 O.2     1  UNL1       -0.4531
     10 C          -1.5226   -0.7392   -0.6727 C.ar    1  UNL1        0.1516
     11 C          -3.0440   -0.8806   -0.9155 C.ar    1  UNL1        0.0628
     12 S          -3.8568   -2.0906   -1.7674 S.2     1  UNL1       -0.0929
     13 C          -5.3838   -1.3466   -1.4472 C.ar    1  UNL1       -0.0230
     14 C          -5.2676   -0.1877   -0.6978 C.ar    1  UNL1       -0.0463
     15 C          -3.9132    0.0550   -0.4072 C.ar    1  UNL1        0.0010
     16 C          -3.3424    1.1480    0.3458 C.ar    1  UNL1       -0.0018
     17 C          -4.0786    2.1535    0.9119 C.ar    1  UNL1       -0.0160
     18 S          -3.0320    3.2675    1.7262 S.2     1  UNL1       -0.1038
     19 C          -1.6072    2.3780    1.3031 C.ar    1  UNL1       -0.0159
     20 C          -1.9526    1.2784    0.5685 C.ar    1  UNL1        0.0016
     21 C          -1.0625    0.3173    0.0460 C.ar    1  UNL1        0.0439
     22 C           0.3203    0.2285    0.1284 C.ar    1  UNL1        0.0663
     23 S           1.7440    0.9734    0.7457 S.2     1  UNL1       -0.0838
     24 H           7.2834   -1.5414   -0.2987 H       1  UNL1        0.0623
     25 H           7.4786    0.6672    1.1268 H       1  UNL1        0.0693
     26 H           4.7742   -2.0720   -0.8886 H       1  UNL1        0.0629
     27 H           2.4035   -2.0928   -1.1399 H       1  UNL1        0.0666
     28 H          -6.2875   -1.8025   -1.8282 H       1  UNL1        0.0694
     29 H          -6.1158    0.4145   -0.3997 H       1  UNL1        0.0629
     30 H          -5.1461    2.3220    0.9119 H       1  UNL1        0.0700
     31 H          -0.6385    2.7321    1.6258 H       1  UNL1        0.0700
@<TRIPOS>BOND
     1     1     2   ar
     2     2     3   ar
     3     3     4   ar
     4     4     5   ar
     5     4     6    1
     6     6     7   ar
     7     7     8   ar
     8     8     9   ar
     9     9    10   ar
    10    10    11   ar
    11    11    12   ar
    12    12    13   ar
    13    13    14   ar
    14    14    15   ar
    15    15    16   ar
    16    16    17   ar
    17    17    18   ar
    18    18    19   ar
    19    19    20   ar
    20    20    21   ar
    21    21    22   ar
    22    22    23   ar
    23     5     1   ar
    24    23     6   ar
    25    22     8   ar
    26    21    10   ar
    27    15    11   ar
    28    20    16   ar
    29     1    24    1
    30     2    25    1
    31     5    26    1
    32     7    27    1
    33    13    28    1
    34    14    29    1
    35    17    30    1
    36    19    31    1
