@<TRIPOS>MOLECULE
*****
 40 46 0 0 0
SMALL
GASTEIGER

@<TRIPOS>ATOM
      1 SI         -2.8608    4.1784    0.0675 Si      1  UNL1        0.0000
      2 C          -4.3465    3.0421    0.0890 C.2     1  UNL1        0.0000
      3 C          -3.9664    1.7503    0.0770 C.ar    1  UNL1        0.0000
      4 C          -4.8928    0.6340    0.0887 C.ar    1  UNL1        0.0000
      5 C          -4.4410   -0.6331    0.0754 C.ar    1  UNL1        0.0000
      6 C          -2.9979   -0.9071    0.0489 C.ar    1  UNL1        0.0000
      7 C          -2.4533   -2.1964    0.0340 C.ar    1  UNL1        0.0000
      8 C          -3.1063   -3.4085    0.0404 C.ar    1  UNL1        0.0000
      9 O          -2.2012   -4.4447    0.0202 O.2     1  UNL1        0.0000
     10 C          -0.9419   -3.8973    0.0003 C.ar    1  UNL1        0.0000
     11 C          -1.0926   -2.5486    0.0085 C.ar    1  UNL1        0.0000
     12 C          -0.1441   -1.5013   -0.0038 C.ar    1  UNL1        0.0000
     13 C           1.2442   -1.5086   -0.0282 C.ar    1  UNL1        0.0000
     14 C           1.6055   -0.1641   -0.0289 C.ar    1  UNL1        0.0000
     15 O           0.4596    0.6117   -0.0056 O.2     1  UNL1        0.0000
     16 C          -0.6347   -0.2130    0.0102 C.ar    1  UNL1        0.0000
     17 C          -2.0080    0.1324    0.0358 C.ar    1  UNL1        0.0000
     18 C          -2.4981    1.5269    0.0502 C.ar    1  UNL1        0.0000
     19 C          -1.7696    2.6622    0.0420 C.2     1  UNL1        0.0000
     20 C           2.9196    0.4134   -0.0495 C.ar    1  UNL1        0.0000
     21 S           3.1588    2.1428   -0.0461 S.2     1  UNL1        0.0000
     22 C           4.8887    2.0258   -0.0769 C.ar    1  UNL1        0.0000
     23 C           5.2120    0.7178   -0.0884 C.ar    1  UNL1        0.0000
     24 N           6.4708    0.1926   -0.1127 N.ar    1  UNL1        0.0000
     25 C           6.1938   -1.1720   -0.1139 C.ar    1  UNL1        0.0000
     26 C           4.8045   -1.4197   -0.0906 C.ar    1  UNL1        0.0000
     27 C           4.1471   -0.1577   -0.0735 C.ar    1  UNL1        0.0000
     28 H          -2.7785    4.9678   -1.1854 H       1  UNL1        0.0000
     29 H          -2.7343    4.9575    1.3231 H       1  UNL1        0.0000
     30 H          -5.3518    3.4312    0.1083 H       1  UNL1        0.0000
     31 H          -5.9580    0.8406    0.1083 H       1  UNL1        0.0000
     32 H          -5.1394   -1.4611    0.0844 H       1  UNL1        0.0000
     33 H          -4.1426   -3.7152    0.0574 H       1  UNL1        0.0000
     34 H          -0.1185   -4.5959   -0.0171 H       1  UNL1        0.0000
     35 H           1.9141   -2.3543   -0.0435 H       1  UNL1        0.0000
     36 H          -0.6969    2.7641    0.0235 H       1  UNL1        0.0000
     37 H           5.5298    2.8958   -0.0844 H       1  UNL1        0.0000
     38 H           7.3541    0.6879   -0.1261 H       1  UNL1        0.0000
     39 H           7.0181   -1.8737   -0.1315 H       1  UNL1        0.0000
     40 H           4.3546   -2.4029   -0.0870 H       1  UNL1        0.0000
@<TRIPOS>BOND
     1     1     2    1
     2     2     3    2
     3     3     4   ar
     4     4     5   ar
     5     5     6   ar
     6     6     7   ar
     7     7     8   ar
     8     8     9   ar
     9     9    10   ar
    10    10    11   ar
    11    11    12   ar
    12    12    13   ar
    13    13    14   ar
    14    14    15   ar
    15    15    16   ar
    16    16    17   ar
    17    17    18   ar
    18    18    19    2
    19    14    20    1
    20    20    21   ar
    21    21    22   ar
    22    22    23   ar
    23    23    24   ar
    24    24    25   ar
    25    25    26   ar
    26    26    27   ar
    27    19     1    1
    28    27    20   ar
    29    18     3   ar
    30    27    23   ar
    31    17     6   ar
    32    11     7   ar
    33    16    12   ar
    34     1    28    1
    35     1    29    1
    36     2    30    1
    37     4    31    1
    38     5    32    1
    39     8    33    1
    40    10    34    1
    41    13    35    1
    42    19    36    1
    43    22    37    1
    44    24    38    1
    45    25    39    1
    46    26    40    1
