@<TRIPOS>MOLECULE
*****
 40 46 0 0 0
SMALL
GASTEIGER

@<TRIPOS>ATOM
      1 C          -6.0967    1.8145   -0.0453 C.ar    1  UNL1       -0.0541
      2 C          -6.1296    1.9019    1.3286 C.ar    1  UNL1       -0.0237
      3 S          -4.6371    1.4580    2.0376 S.2     1  UNL1       -0.0966
      4 C          -3.9349    1.1403    0.5067 C.ar    1  UNL1        0.0199
      5 C          -4.8268    1.3757   -0.5213 C.ar    1  UNL1       -0.0469
      6 C          -2.5424    0.6833    0.4236 C.ar    1  UNL1       -0.0025
      7 C          -1.5420    1.6508    0.5479 C.ar    1  UNL1       -0.0386
      8 C          -0.1918    1.2867    0.4162 C.ar    1  UNL1        0.0218
      9 S           1.1266    2.3617    0.6447 S.2     1  UNL1       -0.0875
     10 C           2.2967    1.2073    0.1378 C.ar    1  UNL1        0.0318
     11 C           1.6292    0.0356   -0.1981 C.ar    1  UNL1        0.0263
     12 C           2.4217   -0.9801   -0.8712 C.ar    1  UNL1        0.1093
     13 N           1.8989   -2.0469   -1.4544 N.ar    1  UNL1       -0.1901
     14 S           3.2128   -2.8575   -2.0789 S.2     1  UNL1        0.1165
     15 N           4.4366   -1.8178   -1.6344 N.ar    1  UNL1       -0.1901
     16 C           3.8594   -0.7738   -1.0008 C.ar    1  UNL1        0.1083
     17 C           4.5344    0.3844   -0.5275 C.ar    1  UNL1        0.0143
     18 C           5.9246    0.5727   -0.6333 C.ar    1  UNL1       -0.0337
     19 C           6.4537    1.7651   -0.1781 C.ar    1  UNL1        0.0282
     20 N           5.7115    2.7587    0.3553 N.ar    1  UNL1       -0.2626
     21 C           4.3733    2.5557    0.4440 C.ar    1  UNL1        0.0364
     22 C           3.7176    1.3887    0.0272 C.ar    1  UNL1        0.0167
     23 C           0.2140   -0.0179    0.1137 C.ar    1  UNL1        0.0068
     24 C          -0.8198   -1.0377    0.1639 C.ar    1  UNL1       -0.0084
     25 C          -0.5088   -2.4185    0.1819 C.ar    1  UNL1       -0.0534
     26 C          -1.4939   -3.4078    0.1780 C.ar    1  UNL1       -0.0611
     27 C          -2.8288   -3.0476    0.1856 C.ar    1  UNL1       -0.0611
     28 C          -3.1734   -1.6991    0.2425 C.ar    1  UNL1       -0.0534
     29 C          -2.1963   -0.6727    0.2655 C.ar    1  UNL1       -0.0090
     30 H          -6.9419    2.0545   -0.6787 H       1  UNL1        0.0623
     31 H          -6.9576    2.2063    1.9541 H       1  UNL1        0.0693
     32 H          -4.5789    1.2371   -1.5671 H       1  UNL1        0.0629
     33 H          -1.8071    2.6888    0.7411 H       1  UNL1        0.0635
     34 H           6.5686   -0.1867   -1.0649 H       1  UNL1        0.0639
     35 H           7.5205    1.9632   -0.2358 H       1  UNL1        0.0830
     36 H           3.8360    3.3926    0.8827 H       1  UNL1        0.0836
     37 H           0.5179   -2.7590    0.2510 H       1  UNL1        0.0624
     38 H          -1.2088   -4.4565    0.1801 H       1  UNL1        0.0618
     39 H          -3.6036   -3.8093    0.1822 H       1  UNL1        0.0618
     40 H          -4.2336   -1.4583    0.2980 H       1  UNL1        0.0624
@<TRIPOS>BOND
     1     1     2   ar
     2     2     3   ar
     3     3     4   ar
     4     4     5   ar
     5     4     6    1
     6     6     7   ar
     7     7     8   ar
     8     8     9   ar
     9     9    10   ar
    10    10    11   ar
    11    11    12   ar
    12    12    13   ar
    13    13    14   ar
    14    14    15   ar
    15    15    16   ar
    16    16    17   ar
    17    17    18   ar
    18    18    19   ar
    19    19    20   ar
    20    20    21   ar
    21    21    22   ar
    22    11    23   ar
    23    23    24   ar
    24    24    25   ar
    25    25    26   ar
    26    26    27   ar
    27    27    28   ar
    28    28    29   ar
    29     5     1   ar
    30    29     6   ar
    31    23     8   ar
    32    29    24   ar
    33    22    10   ar
    34    16    12   ar
    35    22    17   ar
    36     1    30    1
    37     2    31    1
    38     5    32    1
    39     7    33    1
    40    18    34    1
    41    19    35    1
    42    21    36    1
    43    25    37    1
    44    26    38    1
    45    27    39    1
    46    28    40    1
