@<TRIPOS>MOLECULE
*****
 33 38 0 0 0
SMALL
GASTEIGER

@<TRIPOS>ATOM
      1 C           6.5654    1.2252    0.9931 C.ar    1  UNL1       -0.0541
      2 C           7.0273    0.0138    0.5385 C.ar    1  UNL1       -0.0237
      3 S           5.7568   -1.0033    0.0273 S.2     1  UNL1       -0.0951
      4 C           4.5477    0.1685    0.4075 C.ar    1  UNL1        0.0375
      5 C           5.1436    1.3137    0.9179 C.ar    1  UNL1       -0.0455
      6 C           3.1172   -0.1236    0.1774 C.ar    1  UNL1        0.0786
      7 C           2.1264    0.8015    0.4748 C.ar    1  UNL1       -0.0208
      8 C           0.8005    0.4214    0.2172 C.ar    1  UNL1        0.0240
      9 S          -0.6047    1.3559    0.4860 S.2     1  UNL1       -0.0873
     10 C          -1.6735    0.1341   -0.0924 C.ar    1  UNL1        0.0333
     11 C          -0.9447   -0.9920   -0.4916 C.ar    1  UNL1        0.0171
     12 C          -1.6596   -2.0905   -0.9925 C.ar    1  UNL1        0.0371
     13 N          -3.0075   -2.0795   -1.0932 N.ar    1  UNL1       -0.2542
     14 C          -3.7095   -1.0128   -0.7160 C.ar    1  UNL1        0.0743
     15 C          -5.1034   -1.0874   -0.8551 C.ar    1  UNL1       -0.0335
     16 C          -6.0068   -0.0642   -0.5111 C.ar    1  UNL1       -0.0315
     17 C          -5.4281    1.1103    0.0098 C.ar    1  UNL1        0.1006
     18 N          -6.1032    2.2012    0.3990 N.ar    1  UNL1       -0.1908
     19 S          -4.9708    3.2896    0.9284 S.2     1  UNL1        0.1165
     20 N          -3.5796    2.4245    0.6866 N.ar    1  UNL1       -0.1901
     21 C          -3.9306    1.2306    0.1755 C.ar    1  UNL1        0.1101
     22 C          -3.0813    0.1464   -0.1973 C.ar    1  UNL1        0.0428
     23 C           0.4862   -0.8240   -0.3118 C.ar    1  UNL1        0.0165
     24 C           1.5517   -1.6960   -0.5818 C.ar    1  UNL1        0.0371
     25 N           2.8327   -1.3394   -0.3373 N.ar    1  UNL1       -0.2538
     26 H           7.2132    2.0110    1.3620 H       1  UNL1        0.0623
     27 H           8.0520   -0.3267    0.4806 H       1  UNL1        0.0693
     28 H           4.5929    2.1918    1.2305 H       1  UNL1        0.0629
     29 H           2.3468    1.7776    0.8874 H       1  UNL1        0.0650
     30 H          -1.1752   -3.0038   -1.3245 H       1  UNL1        0.0836
     31 H          -5.5188   -2.0117   -1.2619 H       1  UNL1        0.0640
     32 H          -7.0773   -0.1704   -0.6378 H       1  UNL1        0.0640
     33 H           1.4142   -2.6898   -0.9951 H       1  UNL1        0.0836
@<TRIPOS>BOND
     1     1     2   ar
     2     2     3   ar
     3     3     4   ar
     4     4     5   ar
     5     4     6    1
     6     6     7   ar
     7     7     8   ar
     8     8     9   ar
     9     9    10   ar
    10    10    11   ar
    11    11    12   ar
    12    12    13   ar
    13    13    14   ar
    14    14    15   ar
    15    15    16   ar
    16    16    17   ar
    17    17    18   ar
    18    18    19   ar
    19    19    20   ar
    20    20    21   ar
    21    21    22   ar
    22    11    23   ar
    23    23    24   ar
    24    24    25   ar
    25     5     1   ar
    26    25     6   ar
    27    23     8   ar
    28    22    10   ar
    29    22    14   ar
    30    21    17   ar
    31     1    26    1
    32     2    27    1
    33     5    28    1
    34     7    29    1
    35    12    30    1
    36    15    31    1
    37    16    32    1
    38    24    33    1
