@<TRIPOS>MOLECULE
*****
 34 39 0 0 0
SMALL
GASTEIGER

@<TRIPOS>ATOM
      1 C          -6.9799   -0.2286    0.4110 C.ar    1  UNL1       -0.0540
      2 C          -7.4003    0.9526   -0.1561 C.ar    1  UNL1       -0.0236
      3 S          -6.0879    1.9065   -0.6945 S.2     1  UNL1       -0.0936
      4 C          -4.9367    0.7474   -0.1739 C.ar    1  UNL1        0.0544
      5 C          -5.5592   -0.3457    0.4002 C.ar    1  UNL1       -0.0440
      6 C          -3.5127    0.9278   -0.3329 C.ar    1  UNL1        0.1435
      7 C          -2.8313    2.0113   -0.9050 C.ar    1  UNL1       -0.0008
      8 C          -1.4663    1.6745   -0.8039 C.ar    1  UNL1        0.0623
      9 S           0.2029    2.0555   -1.0746 S.2     1  UNL1       -0.0810
     10 C           0.8629    0.6044   -0.3848 C.ar    1  UNL1        0.0700
     11 C          -0.2299   -0.0895    0.0135 C.ar    1  UNL1        0.1859
     12 O           0.0148   -1.2727    0.5902 O.2     1  UNL1       -0.4505
     13 C           1.3885   -1.3283    0.5510 C.ar    1  UNL1        0.1376
     14 C           2.1310   -2.3988    1.0474 C.ar    1  UNL1       -0.0181
     15 C           3.5247   -2.3188    0.9398 C.ar    1  UNL1       -0.0505
     16 C           4.1616   -1.2103    0.3574 C.ar    1  UNL1       -0.0171
     17 C           5.5592   -1.1417    0.2553 C.ar    1  UNL1       -0.0540
     18 C           6.1819   -0.0336   -0.3262 C.ar    1  UNL1       -0.0612
     19 C           5.4197    1.0252   -0.8158 C.ar    1  UNL1       -0.0611
     20 C           4.0287    0.9840   -0.7277 C.ar    1  UNL1       -0.0533
     21 C           3.3914   -0.1287   -0.1432 C.ar    1  UNL1       -0.0060
     22 C           1.9794   -0.1978   -0.0401 C.ar    1  UNL1        0.0423
     23 C          -1.4332    0.4662   -0.2044 C.ar    1  UNL1        0.1854
     24 O          -2.6259   -0.0493    0.1100 O.2     1  UNL1       -0.4500
     25 H          -7.6555   -0.9730    0.8141 H       1  UNL1        0.0623
     26 H          -8.4156    1.3034   -0.2813 H       1  UNL1        0.0693
     27 H          -5.0150   -1.1956    0.7965 H       1  UNL1        0.0630
     28 H          -3.2657    2.9050   -1.3284 H       1  UNL1        0.0667
     29 H           1.6432   -3.2560    1.4975 H       1  UNL1        0.0655
     30 H           4.1186   -3.1473    1.3231 H       1  UNL1        0.0625
     31 H           6.1792   -1.9539    0.6292 H       1  UNL1        0.0624
     32 H           7.2664    0.0018   -0.3966 H       1  UNL1        0.0618
     33 H           5.9096    1.8844   -1.2670 H       1  UNL1        0.0618
     34 H           3.4517    1.8196   -1.1152 H       1  UNL1        0.0624
@<TRIPOS>BOND
     1     1     2   ar
     2     2     3   ar
     3     3     4   ar
     4     4     5   ar
     5     4     6    1
     6     6     7   ar
     7     7     8   ar
     8     8     9   ar
     9     9    10   ar
    10    10    11   ar
    11    11    12   ar
    12    12    13   ar
    13    13    14   ar
    14    14    15   ar
    15    15    16   ar
    16    16    17   ar
    17    17    18   ar
    18    18    19   ar
    19    19    20   ar
    20    20    21   ar
    21    21    22   ar
    22    11    23   ar
    23    23    24   ar
    24     5     1   ar
    25    24     6   ar
    26    23     8   ar
    27    22    10   ar
    28    22    13   ar
    29    21    16   ar
    30     1    25    1
    31     2    26    1
    32     5    27    1
    33     7    28    1
    34    14    29    1
    35    15    30    1
    36    17    31    1
    37    18    32    1
    38    19    33    1
    39    20    34    1
