@<TRIPOS>MOLECULE
*****
 30 34 0 0 0
SMALL
GASTEIGER

@<TRIPOS>ATOM
      1 C          -6.0849   -1.2319   -1.0877 C.ar    1  UNL1       -0.0541
      2 C          -6.4886   -0.4908   -0.0035 C.ar    1  UNL1       -0.0237
      3 S          -5.1678    0.2046    0.8223 S.2     1  UNL1       -0.0951
      4 C          -4.0143   -0.4786   -0.2652 C.ar    1  UNL1        0.0375
      5 C          -4.6663   -1.2248   -1.2375 C.ar    1  UNL1       -0.0455
      6 C          -2.5679   -0.2317   -0.0822 C.ar    1  UNL1        0.0786
      7 C          -1.6219   -0.7720   -0.9459 C.ar    1  UNL1       -0.0208
      8 C          -0.2731   -0.4787   -0.6870 C.ar    1  UNL1        0.0254
      9 S           1.0875   -1.0276   -1.6095 S.2     1  UNL1       -0.0859
     10 C           2.1653   -0.1868   -0.5526 C.ar    1  UNL1        0.0472
     11 C           3.5651    0.0402   -0.3921 C.ar    1  UNL1        0.0321
     12 C           4.7163   -0.3562   -1.0775 C.ar    1  UNL1        0.0378
     13 N           5.9380    0.0477   -0.6492 N.ar    1  UNL1       -0.2625
     14 C           6.0170    0.8357    0.4464 C.ar    1  UNL1        0.0295
     15 C           4.9325    1.2796    1.1907 C.ar    1  UNL1       -0.0196
     16 C           3.6853    0.8545    0.7356 C.ar    1  UNL1        0.0509
     17 N           2.4293    1.1076    1.2317 N.ar    1  UNL1       -0.3531
     18 C           1.5037    0.4687    0.4406 C.ar    1  UNL1        0.0640
     19 C           0.0851    0.3237    0.3973 C.ar    1  UNL1        0.0313
     20 C          -0.9283    0.8279    1.2181 C.ar    1  UNL1        0.0385
     21 N          -2.2270    0.5465    0.9701 N.ar    1  UNL1       -0.2537
     22 H          -6.7712   -1.7544   -1.7427 H       1  UNL1        0.0623
     23 H          -7.4975   -0.3220    0.3468 H       1  UNL1        0.0693
     24 H          -4.1579   -1.7524   -2.0343 H       1  UNL1        0.0629
     25 H          -1.8940   -1.3948   -1.7882 H       1  UNL1        0.0650
     26 H           4.6958   -0.9868   -1.9589 H       1  UNL1        0.0836
     27 H           7.0283    1.1185    0.7288 H       1  UNL1        0.0830
     28 H           5.0575    1.9106    2.0610 H       1  UNL1        0.0653
     29 H           2.1907    1.6660    2.0413 H       1  UNL1        0.1659
     30 H          -0.7368    1.4579    2.0796 H       1  UNL1        0.0837
@<TRIPOS>BOND
     1     1     2   ar
     2     2     3   ar
     3     3     4   ar
     4     4     5   ar
     5     4     6    1
     6     6     7   ar
     7     7     8   ar
     8     8     9   ar
     9     9    10   ar
    10    10    11   ar
    11    11    12   ar
    12    12    13   ar
    13    13    14   ar
    14    14    15   ar
    15    15    16   ar
    16    16    17   ar
    17    17    18   ar
    18    18    19   ar
    19    19    20   ar
    20    20    21   ar
    21     5     1   ar
    22    21     6   ar
    23    19     8   ar
    24    18    10   ar
    25    16    11   ar
    26     1    22    1
    27     2    23    1
    28     5    24    1
    29     7    25    1
    30    12    26    1
    31    14    27    1
    32    15    28    1
    33    17    29    1
    34    20    30    1
