@<TRIPOS>MOLECULE
*****
 45 50 0 0 0
SMALL
GASTEIGER

@<TRIPOS>ATOM
      1 C           8.0037    0.7980    0.9024 C.ar    1  UNL1       -0.0541
      2 C           8.3635    0.5095   -0.3953 C.ar    1  UNL1       -0.0237
      3 S           7.0048    0.1756   -1.3792 S.2     1  UNL1       -0.0966
      4 C           5.9211    0.4033   -0.0713 C.ar    1  UNL1        0.0199
      5 C           6.5918    0.7371    1.0894 C.ar    1  UNL1       -0.0469
      6 C           4.4948    0.2385   -0.2859 C.ar    1  UNL1       -0.0031
      7 C           3.7120    1.1296   -1.0574 C.ar    1  UNL1       -0.0523
      8 C           2.3033    0.9828   -1.2543 C.ar    1  UNL1       -0.0523
      9 C           1.5364   -0.0694   -0.6993 C.ar    1  UNL1       -0.0030
     10 C           0.1098   -0.2274   -0.9220 C.ar    1  UNL1        0.0205
     11 C          -0.5576   -1.2257   -1.6042 C.ar    1  UNL1       -0.0463
     12 C          -1.9702   -1.0367   -1.5966 C.ar    1  UNL1       -0.0463
     13 C          -2.3391    0.1018   -0.9098 C.ar    1  UNL1        0.0205
     14 S          -0.9778    0.9378   -0.2959 S.2     1  UNL1       -0.0882
     15 C          -3.6852    0.6312   -0.6704 C.ar    1  UNL1       -0.0036
     16 C          -4.1485    1.6547   -1.5140 C.ar    1  UNL1       -0.0529
     17 C          -5.4238    2.1846   -1.3502 C.ar    1  UNL1       -0.0606
     18 C          -6.2524    1.6945   -0.3437 C.ar    1  UNL1       -0.0540
     19 C          -5.8207    0.6710    0.5144 C.ar    1  UNL1       -0.0173
     20 C          -6.6726    0.1903    1.5233 C.ar    1  UNL1       -0.0540
     21 C          -6.2631   -0.8239    2.3882 C.ar    1  UNL1       -0.0612
     22 C          -4.9934   -1.3702    2.2576 C.ar    1  UNL1       -0.0611
     23 C          -4.1344   -0.9035    1.2599 C.ar    1  UNL1       -0.0534
     24 C          -4.5219    0.1220    0.3629 C.ar    1  UNL1       -0.0097
     25 C           2.3091   -0.9600    0.0699 C.ar    1  UNL1       -0.0021
     26 C           1.8093   -2.0550    0.7378 C.ar    1  UNL1       -0.0160
     27 S           3.0429   -2.9190    1.5622 S.2     1  UNL1       -0.1038
     28 C           4.2583   -1.8213    1.0469 C.ar    1  UNL1       -0.0160
     29 C           3.7391   -0.8098    0.2712 C.ar    1  UNL1       -0.0021
     30 H           8.7179    1.0403    1.6800 H       1  UNL1        0.0623
     31 H           9.3591    0.4797   -0.8168 H       1  UNL1        0.0693
     32 H           6.0915    0.9306    2.0311 H       1  UNL1        0.0629
     33 H           4.2021    1.9825   -1.5293 H       1  UNL1        0.0624
     34 H           1.8003    1.7270   -1.8736 H       1  UNL1        0.0624
     35 H          -0.0553   -2.0551   -2.0881 H       1  UNL1        0.0629
     36 H          -2.6820   -1.7029   -2.0698 H       1  UNL1        0.0629
     37 H          -3.5102    2.0416   -2.3062 H       1  UNL1        0.0624
     38 H          -5.7732    2.9777   -2.0062 H       1  UNL1        0.0618
     39 H          -7.2469    2.1219   -0.2319 H       1  UNL1        0.0624
     40 H          -7.6704    0.6072    1.6447 H       1  UNL1        0.0624
     41 H          -6.9347   -1.1829    3.1636 H       1  UNL1        0.0618
     42 H          -4.6656   -2.1579    2.9309 H       1  UNL1        0.0618
     43 H          -3.1446   -1.3504    1.1921 H       1  UNL1        0.0624
     44 H           0.7897   -2.4102    0.7964 H       1  UNL1        0.0700
     45 H           5.2829   -1.9898    1.3494 H       1  UNL1        0.0700
@<TRIPOS>BOND
     1     1     2   ar
     2     2     3   ar
     3     3     4   ar
     4     4     5   ar
     5     4     6    1
     6     6     7   ar
     7     7     8   ar
     8     8     9   ar
     9     9    10    1
    10    10    11   ar
    11    11    12   ar
    12    12    13   ar
    13    13    14   ar
    14    13    15    1
    15    15    16   ar
    16    16    17   ar
    17    17    18   ar
    18    18    19   ar
    19    19    20   ar
    20    20    21   ar
    21    21    22   ar
    22    22    23   ar
    23    23    24   ar
    24     9    25   ar
    25    25    26   ar
    26    26    27   ar
    27    27    28   ar
    28    28    29   ar
    29     5     1   ar
    30    29     6   ar
    31    14    10   ar
    32    24    15   ar
    33    29    25   ar
    34    24    19   ar
    35     1    30    1
    36     2    31    1
    37     5    32    1
    38     7    33    1
    39     8    34    1
    40    11    35    1
    41    12    36    1
    42    16    37    1
    43    17    38    1
    44    18    39    1
    45    20    40    1
    46    21    41    1
    47    22    42    1
    48    23    43    1
    49    26    44    1
    50    28    45    1
