@<TRIPOS>MOLECULE
*****
 43 49 0 0 0
SMALL
GASTEIGER

@<TRIPOS>ATOM
      1 C           8.1640    0.1735   -0.2422 C.ar    1  UNL1       -0.0541
      2 C           8.1405    1.0760   -1.2797 C.ar    1  UNL1       -0.0237
      3 S           6.5469    1.5169   -1.7084 S.2     1  UNL1       -0.0966
      4 C           5.8600    0.5033   -0.5003 C.ar    1  UNL1        0.0214
      5 C           6.8514   -0.1569    0.2045 C.ar    1  UNL1       -0.0469
      6 C           4.4063    0.4279   -0.3469 C.ar    1  UNL1        0.0169
      7 C           3.5639    1.5637   -0.3648 C.ar    1  UNL1       -0.0508
      8 C           2.1601    1.4988   -0.2094 C.ar    1  UNL1       -0.0506
      9 C           1.4645    0.2898   -0.0156 C.ar    1  UNL1        0.0205
     10 C           0.0326    0.2281    0.1534 C.ar    1  UNL1        0.0648
     11 S          -1.0969    0.7123   -1.0603 S.2     1  UNL1       -0.0838
     12 C          -2.4896    0.3029   -0.0894 C.ar    1  UNL1        0.0314
     13 C          -3.8265    0.4803   -0.6104 C.ar    1  UNL1        0.0001
     14 C          -4.3436    1.6870   -1.1479 C.ar    1  UNL1       -0.0528
     15 C          -5.6895    1.8411   -1.6425 C.ar    1  UNL1       -0.0605
     16 C          -6.6582    0.8102   -1.6550 C.ar    1  UNL1       -0.0510
     17 C          -6.1241   -0.3586   -1.1304 C.ar    1  UNL1        0.0205
     18 C          -6.7577   -1.5642   -0.9956 C.ar    1  UNL1        0.0994
     19 O          -5.8913   -2.4750   -0.4550 O.2     1  UNL1       -0.4698
     20 C          -4.6965   -1.8385   -0.2488 C.ar    1  UNL1        0.1000
     21 C          -4.7955   -0.5259   -0.6356 C.ar    1  UNL1        0.0281
     22 C          -2.0291   -0.1485    1.1019 C.ar    1  UNL1        0.0356
     23 C          -2.4960   -0.6100    2.3462 C.ar    1  UNL1       -0.0150
     24 C          -1.3411   -0.8775    3.0919 C.ar    1  UNL1        0.0932
     25 O          -0.1601   -0.6147    2.4229 O.2     1  UNL1       -0.4617
     26 C          -0.6614   -0.1862    1.2307 C.ar    1  UNL1        0.1502
     27 C           2.2473   -0.9001    0.0070 C.ar    1  UNL1        0.1088
     28 N           1.7995   -2.1612    0.1478 N.ar    1  UNL1       -0.1901
     29 S           3.1218   -3.1530    0.1061 S.2     1  UNL1        0.1165
     30 N           4.3327   -2.0464   -0.1107 N.ar    1  UNL1       -0.1901
     31 C           3.7570   -0.8302   -0.1580 C.ar    1  UNL1        0.1087
     32 H           9.0761   -0.2349    0.1752 H       1  UNL1        0.0623
     33 H           8.9831    1.4964   -1.8111 H       1  UNL1        0.0693
     34 H           6.6460   -0.8532    1.0095 H       1  UNL1        0.0629
     35 H           4.0090    2.5518   -0.4924 H       1  UNL1        0.0625
     36 H           1.5999    2.4347   -0.2302 H       1  UNL1        0.0625
     37 H          -3.6953    2.5637   -1.1869 H       1  UNL1        0.0624
     38 H          -5.9756    2.8196   -2.0316 H       1  UNL1        0.0618
     39 H          -7.6631    0.9376   -2.0313 H       1  UNL1        0.0625
     40 H          -7.7466   -1.9383   -1.2195 H       1  UNL1        0.1035
     41 H          -3.9110   -2.4570    0.1624 H       1  UNL1        0.1036
     42 H          -3.5149   -0.7365    2.6835 H       1  UNL1        0.0655
     43 H          -1.1992   -1.2488    4.0985 H       1  UNL1        0.1030
@<TRIPOS>BOND
     1     1     2   ar
     2     2     3   ar
     3     3     4   ar
     4     4     5   ar
     5     4     6    1
     6     6     7   ar
     7     7     8   ar
     8     8     9   ar
     9     9    10    1
    10    10    11   ar
    11    11    12   ar
    12    12    13    1
    13    13    14   ar
    14    14    15   ar
    15    15    16   ar
    16    16    17   ar
    17    17    18   ar
    18    18    19   ar
    19    19    20   ar
    20    20    21   ar
    21    12    22   ar
    22    22    23   ar
    23    23    24   ar
    24    24    25   ar
    25    25    26   ar
    26     9    27   ar
    27    27    28   ar
    28    28    29   ar
    29    29    30   ar
    30    30    31   ar
    31     5     1   ar
    32    31     6   ar
    33    26    10   ar
    34    31    27   ar
    35    21    13   ar
    36    26    22   ar
    37    21    17   ar
    38     1    32    1
    39     2    33    1
    40     5    34    1
    41     7    35    1
    42     8    36    1
    43    14    37    1
    44    15    38    1
    45    16    39    1
    46    18    40    1
    47    20    41    1
    48    23    42    1
    49    24    43    1
