@<TRIPOS>MOLECULE
*****
 43 49 0 0 0
SMALL
GASTEIGER

@<TRIPOS>ATOM
      1 C           7.1802    2.5186    0.3926 C.ar    1  UNL1       -0.0541
      2 C           7.7288    1.2673    0.5612 C.ar    1  UNL1       -0.0237
      3 S           6.5315    0.0510    0.6678 S.2     1  UNL1       -0.0966
      4 C           5.2650    1.1881    0.4671 C.ar    1  UNL1        0.0200
      5 C           5.7561    2.4735    0.3469 C.ar    1  UNL1       -0.0469
      6 C           3.8845    0.7491    0.4863 C.ar    1  UNL1       -0.0006
      7 C           2.9556    1.0898    1.5008 C.ar    1  UNL1       -0.0522
      8 C           1.5810    0.6621    1.5096 C.ar    1  UNL1       -0.0522
      9 C           0.9934   -0.1375    0.4973 C.ar    1  UNL1        0.0006
     10 C          -0.3806   -0.5721    0.4929 C.ar    1  UNL1        0.0349
     11 S          -1.5332    0.0146   -0.6356 S.2     1  UNL1       -0.0859
     12 C          -2.8234   -0.9253    0.0289 C.ar    1  UNL1        0.0367
     13 C          -4.1447   -0.9044   -0.5220 C.ar    1  UNL1        0.0503
     14 S          -5.0687   -2.3400   -0.8553 S.2     1  UNL1       -0.0934
     15 C          -6.4346   -1.4589   -1.4695 C.ar    1  UNL1       -0.0145
     16 C          -6.1365   -0.1468   -1.3943 C.ar    1  UNL1        0.0073
     17 C          -6.6919    1.1248   -1.6742 C.ar    1  UNL1       -0.0361
     18 C          -5.7287    2.0863   -1.3015 C.ar    1  UNL1        0.0028
     19 N          -4.5765    1.4899   -0.7937 N.ar    1  UNL1       -0.3597
     20 C          -4.8949    0.1631   -0.8840 C.ar    1  UNL1        0.0620
     21 C          -2.3171   -1.6249    1.0776 C.ar    1  UNL1        0.0051
     22 C          -2.8675   -2.5339    2.0233 C.ar    1  UNL1       -0.0458
     23 C          -1.9230   -2.9961    2.9460 C.ar    1  UNL1       -0.0231
     24 S          -0.2912   -2.3744    2.7671 S.2     1  UNL1       -0.0955
     25 C          -0.9613   -1.4475    1.3672 C.ar    1  UNL1        0.0347
     26 C           1.9205   -0.4570   -0.4990 C.ar    1  UNL1        0.0287
     27 C           1.7426   -1.2141   -1.6287 C.ar    1  UNL1        0.1000
     28 O           2.9102   -1.2661   -2.3390 O.2     1  UNL1       -0.4698
     29 C           3.8459   -0.5444   -1.6506 C.ar    1  UNL1        0.1000
     30 C           3.2895   -0.0375   -0.5042 C.ar    1  UNL1        0.0286
     31 H           7.7708    3.4227    0.3087 H       1  UNL1        0.0623
     32 H           8.7757    1.0061    0.6324 H       1  UNL1        0.0693
     33 H           5.1224    3.3437    0.2229 H       1  UNL1        0.0629
     34 H           3.2976    1.7039    2.3353 H       1  UNL1        0.0624
     35 H           0.9623    0.9800    2.3504 H       1  UNL1        0.0624
     36 H          -7.3223   -1.9616   -1.8249 H       1  UNL1        0.0700
     37 H          -7.6651    1.3448   -2.0926 H       1  UNL1        0.0639
     38 H          -5.7754    3.1663   -1.3611 H       1  UNL1        0.0807
     39 H          -3.7144    1.8972   -0.4506 H       1  UNL1        0.1654
     40 H          -3.9027   -2.8521    2.0523 H       1  UNL1        0.0629
     41 H          -2.0981   -3.6931    3.7545 H       1  UNL1        0.0694
     42 H           0.9132   -1.7531   -2.0649 H       1  UNL1        0.1036
     43 H           4.8250   -0.5024   -2.1068 H       1  UNL1        0.1036
@<TRIPOS>BOND
     1     1     2   ar
     2     2     3   ar
     3     3     4   ar
     4     4     5   ar
     5     4     6    1
     6     6     7   ar
     7     7     8   ar
     8     8     9   ar
     9     9    10    1
    10    10    11   ar
    11    11    12   ar
    12    12    13    1
    13    13    14   ar
    14    14    15   ar
    15    15    16   ar
    16    16    17   ar
    17    17    18   ar
    18    18    19   ar
    19    19    20   ar
    20    12    21   ar
    21    21    22   ar
    22    22    23   ar
    23    23    24   ar
    24    24    25   ar
    25     9    26   ar
    26    26    27   ar
    27    27    28   ar
    28    28    29   ar
    29    29    30   ar
    30     5     1   ar
    31    30     6   ar
    32    25    10   ar
    33    30    26   ar
    34    20    13   ar
    35    25    21   ar
    36    20    16   ar
    37     1    31    1
    38     2    32    1
    39     5    33    1
    40     7    34    1
    41     8    35    1
    42    15    36    1
    43    17    37    1
    44    18    38    1
    45    19    39    1
    46    22    40    1
    47    23    41    1
    48    27    42    1
    49    29    43    1
