@<TRIPOS>MOLECULE
*****
 40 44 0 0 0
SMALL
GASTEIGER

@<TRIPOS>ATOM
      1 C           7.7686   -0.7399   -1.6627 C.ar    1  UNL1       -0.0541
      2 C           8.1647   -0.4028   -0.3891 C.ar    1  UNL1       -0.0237
      3 S           6.8342   -0.0541    0.6247 S.2     1  UNL1       -0.0967
      4 C           5.7024   -0.3602   -0.6315 C.ar    1  UNL1        0.0193
      5 C           6.3504   -0.7107   -1.8032 C.ar    1  UNL1       -0.0469
      6 C           4.2610   -0.2082   -0.3923 C.ar    1  UNL1       -0.0113
      7 C           3.4621    0.4607   -1.3283 C.ar    1  UNL1       -0.0530
      8 C           2.0845    0.6064   -1.1229 C.ar    1  UNL1       -0.0534
      9 C           1.4627    0.0829    0.0206 C.ar    1  UNL1       -0.0178
     10 C           2.2667   -0.5911    0.9522 C.ar    1  UNL1       -0.0534
     11 C           3.6449   -0.7358    0.7494 C.ar    1  UNL1       -0.0530
     12 C           0.0145    0.2350    0.2354 C.ar    1  UNL1       -0.0178
     13 C          -0.5952    1.4987    0.1905 C.ar    1  UNL1       -0.0534
     14 C          -1.9719    1.6454    0.3960 C.ar    1  UNL1       -0.0529
     15 C          -2.7759    0.5292    0.6488 C.ar    1  UNL1       -0.0093
     16 C          -2.1770   -0.7348    0.6985 C.ar    1  UNL1       -0.0529
     17 C          -0.8000   -0.8786    0.4947 C.ar    1  UNL1       -0.0534
     18 C          -4.2074    0.6750    0.8493 C.ar    1  UNL1        0.0432
     19 S          -4.8940    1.5975    2.1460 S.2     1  UNL1       -0.0939
     20 C          -6.5319    1.2313    1.6827 C.ar    1  UNL1       -0.0145
     21 C          -6.4790    0.4505    0.5845 C.ar    1  UNL1        0.0073
     22 C          -7.3193   -0.2168   -0.3398 C.ar    1  UNL1       -0.0361
     23 C          -6.4781   -0.8571   -1.2758 C.ar    1  UNL1        0.0028
     24 N          -5.1314   -0.6315   -0.9961 N.ar    1  UNL1       -0.3598
     25 C          -5.2173    0.1459    0.1240 C.ar    1  UNL1        0.0614
     26 H           8.4609   -0.9947   -2.4556 H       1  UNL1        0.0623
     27 H           9.1726   -0.3419   -0.0024 H       1  UNL1        0.0693
     28 H           5.8287   -0.9464   -2.7230 H       1  UNL1        0.0629
     29 H           3.9055    0.8873   -2.2254 H       1  UNL1        0.0624
     30 H           1.4959    1.1288   -1.8746 H       1  UNL1        0.0624
     31 H           1.8259   -1.0036    1.8579 H       1  UNL1        0.0624
     32 H           4.2274   -1.2733    1.4945 H       1  UNL1        0.0624
     33 H           0.0042    2.3887    0.0075 H       1  UNL1        0.0624
     34 H          -2.4098    2.6406    0.3539 H       1  UNL1        0.0624
     35 H          -2.7755   -1.6188    0.9096 H       1  UNL1        0.0624
     36 H          -0.3653   -1.8757    0.5347 H       1  UNL1        0.0624
     37 H          -7.3761    1.6130    2.2380 H       1  UNL1        0.0700
     38 H          -8.4009   -0.2427   -0.3513 H       1  UNL1        0.0639
     39 H          -6.7392   -1.4616   -2.1351 H       1  UNL1        0.0807
     40 H          -4.2926   -0.9365   -1.4756 H       1  UNL1        0.1654
@<TRIPOS>BOND
     1     1     2   ar
     2     2     3   ar
     3     3     4   ar
     4     4     5   ar
     5     4     6    1
     6     6     7   ar
     7     7     8   ar
     8     8     9   ar
     9     9    10   ar
    10    10    11   ar
    11     9    12    1
    12    12    13   ar
    13    13    14   ar
    14    14    15   ar
    15    15    16   ar
    16    16    17   ar
    17    15    18    1
    18    18    19   ar
    19    19    20   ar
    20    20    21   ar
    21    21    22   ar
    22    22    23   ar
    23    23    24   ar
    24    24    25   ar
    25     5     1   ar
    26    11     6   ar
    27    17    12   ar
    28    25    18   ar
    29    25    21   ar
    30     1    26    1
    31     2    27    1
    32     5    28    1
    33     7    29    1
    34     8    30    1
    35    10    31    1
    36    11    32    1
    37    13    33    1
    38    14    34    1
    39    16    35    1
    40    17    36    1
    41    20    37    1
    42    22    38    1
    43    23    39    1
    44    24    40    1
