@<TRIPOS>MOLECULE
*****
 30 33 0 0 0
SMALL
GASTEIGER

@<TRIPOS>ATOM
      1 C          -6.0219    0.0160   -0.1485 C.ar    1  UNL1       -0.0541
      2 C          -5.9204    1.3853   -0.1483 C.ar    1  UNL1       -0.0237
      3 S          -4.2970    1.9024   -0.1092 S.2     1  UNL1       -0.0967
      4 C          -3.6828    0.2891   -0.0913 C.ar    1  UNL1        0.0193
      5 C          -4.7409   -0.6102   -0.1158 C.ar    1  UNL1       -0.0469
      6 C          -2.2242    0.0157   -0.0549 C.ar    1  UNL1       -0.0113
      7 C          -1.7468   -1.3008   -0.0409 C.ar    1  UNL1       -0.0529
      8 C          -0.3703   -1.5890   -0.0065 C.ar    1  UNL1       -0.0529
      9 C           0.6025   -0.5762    0.0158 C.ar    1  UNL1       -0.0092
     10 C           0.1182    0.7383    0.0017 C.ar    1  UNL1       -0.0529
     11 C          -1.2582    1.0288   -0.0327 C.ar    1  UNL1       -0.0529
     12 C           2.0656   -0.8673    0.0524 C.ar    1  UNL1        0.0468
     13 S           2.6206   -2.5209    0.0688 S.2     1  UNL1       -0.0923
     14 C           4.2711   -2.0973    0.1088 C.ar    1  UNL1        0.0038
     15 C           4.4321   -0.7405    0.1105 C.ar    1  UNL1        0.0968
     16 N           5.6617   -0.1550    0.1399 N.ar    1  UNL1       -0.2514
     17 C           5.5517    1.1989    0.1349 C.ar    1  UNL1        0.0464
     18 C           4.3458    1.9041    0.1040 C.ar    1  UNL1        0.0464
     19 N           3.1088    1.3409    0.0744 N.ar    1  UNL1       -0.2508
     20 C           3.1728   -0.0253    0.0783 C.ar    1  UNL1        0.1039
     21 H          -6.9660   -0.5142   -0.1708 H       1  UNL1        0.0623
     22 H          -6.7229    2.1096   -0.1694 H       1  UNL1        0.0693
     23 H          -4.6177   -1.6855   -0.1109 H       1  UNL1        0.0629
     24 H          -2.4315   -2.1445   -0.0564 H       1  UNL1        0.0624
     25 H          -0.0948   -2.6406    0.0020 H       1  UNL1        0.0624
     26 H           0.7943    1.5882    0.0170 H       1  UNL1        0.0624
     27 H          -1.5399    2.0789   -0.0414 H       1  UNL1        0.0624
     28 H           5.0420   -2.8537    0.1290 H       1  UNL1        0.0715
     29 H           6.4967    1.7342    0.1573 H       1  UNL1        0.0845
     30 H           4.3513    2.9907    0.1023 H       1  UNL1        0.0845
@<TRIPOS>BOND
     1     1     2   ar
     2     2     3   ar
     3     3     4   ar
     4     4     5   ar
     5     4     6    1
     6     6     7   ar
     7     7     8   ar
     8     8     9   ar
     9     9    10   ar
    10    10    11   ar
    11     9    12    1
    12    12    13   ar
    13    13    14   ar
    14    14    15   ar
    15    15    16   ar
    16    16    17   ar
    17    17    18   ar
    18    18    19   ar
    19    19    20   ar
    20     5     1   ar
    21    11     6   ar
    22    20    12   ar
    23    20    15   ar
    24     1    21    1
    25     2    22    1
    26     5    23    1
    27     7    24    1
    28     8    25    1
    29    10    26    1
    30    11    27    1
    31    14    28    1
    32    17    29    1
    33    18    30    1
