@<TRIPOS>MOLECULE
*****
 39 44 0 0 0
SMALL
GASTEIGER

@<TRIPOS>ATOM
      1 C           7.6283    0.3941   -1.2168 C.ar    1  UNL1       -0.0541
      2 C           8.0183    0.3878    0.1013 C.ar    1  UNL1       -0.0237
      3 S           6.6833    0.3047    1.1621 S.2     1  UNL1       -0.0951
      4 C           5.5475    0.2787   -0.1305 C.ar    1  UNL1        0.0375
      5 C           6.2113    0.3301   -1.3479 C.ar    1  UNL1       -0.0455
      6 C           4.0933    0.2044    0.1038 C.ar    1  UNL1        0.0775
      7 C           3.4949    0.2447    1.3609 C.ar    1  UNL1       -0.0346
      8 C           2.1032    0.1609    1.4575 C.ar    1  UNL1       -0.0500
      9 C           1.3310    0.0414    0.3031 C.ar    1  UNL1        0.0089
     10 C           2.0117    0.0235   -0.9087 C.ar    1  UNL1        0.0365
     11 N           3.3593    0.0922   -1.0332 N.ar    1  UNL1       -0.2538
     12 C          -0.1136   -0.0675    0.3604 C.ar    1  UNL1        0.0452
     13 S          -1.1242    1.1493    1.0602 S.2     1  UNL1       -0.0849
     14 C          -2.6015    0.2971    0.7008 C.ar    1  UNL1        0.0363
     15 C          -3.8976    0.8136    1.0247 C.ar    1  UNL1        0.0348
     16 S          -4.2757    1.4748    2.5766 S.2     1  UNL1       -0.0944
     17 C          -5.9146    1.7999    2.1584 C.ar    1  UNL1       -0.0094
     18 C          -6.1600    1.4188    0.8711 C.ar    1  UNL1        0.0269
     19 S          -7.6609    1.5126   -0.1195 S.2     1  UNL1       -0.0961
     20 C          -6.6811    0.8014   -1.3941 C.ar    1  UNL1       -0.0231
     21 C          -5.3473    0.5263   -1.0703 C.ar    1  UNL1       -0.0459
     22 C          -5.0243    0.8755    0.2700 C.ar    1  UNL1        0.0045
     23 C          -2.2544   -0.8579    0.0862 C.ar    1  UNL1        0.0156
     24 C          -2.8201   -2.0402   -0.4614 C.ar    1  UNL1       -0.0355
     25 C          -1.7533   -2.8383   -0.9246 C.ar    1  UNL1        0.0028
     26 N          -0.5204   -2.2325   -0.6943 N.ar    1  UNL1       -0.3597
     27 C          -0.9033   -1.0634   -0.0974 C.ar    1  UNL1        0.0621
     28 H           8.3216    0.4420   -2.0474 H       1  UNL1        0.0623
     29 H           9.0250    0.4276    0.4942 H       1  UNL1        0.0693
     30 H           5.6891    0.3232   -2.2981 H       1  UNL1        0.0629
     31 H           4.0788    0.3398    2.2697 H       1  UNL1        0.0639
     32 H           1.6349    0.1841    2.4389 H       1  UNL1        0.0625
     33 H           1.4779   -0.0442   -1.8537 H       1  UNL1        0.0836
     34 H          -6.6126    2.2476    2.8522 H       1  UNL1        0.0705
     35 H          -7.1645    0.6255   -2.3456 H       1  UNL1        0.0694
     36 H          -4.6552    0.0991   -1.7859 H       1  UNL1        0.0629
     37 H          -3.8675   -2.3078   -0.5128 H       1  UNL1        0.0639
     38 H          -1.7772   -3.8124   -1.3970 H       1  UNL1        0.0807
     39 H           0.4199   -2.5565   -0.8891 H       1  UNL1        0.1654
@<TRIPOS>BOND
     1     1     2   ar
     2     2     3   ar
     3     3     4   ar
     4     4     5   ar
     5     4     6    1
     6     6     7   ar
     7     7     8   ar
     8     8     9   ar
     9     9    10   ar
    10    10    11   ar
    11     9    12    1
    12    12    13   ar
    13    13    14   ar
    14    14    15    1
    15    15    16   ar
    16    16    17   ar
    17    17    18   ar
    18    18    19   ar
    19    19    20   ar
    20    20    21   ar
    21    21    22   ar
    22    14    23   ar
    23    23    24   ar
    24    24    25   ar
    25    25    26   ar
    26    26    27   ar
    27     5     1   ar
    28    11     6   ar
    29    27    12   ar
    30    22    15   ar
    31    27    23   ar
    32    22    18   ar
    33     1    28    1
    34     2    29    1
    35     5    30    1
    36     7    31    1
    37     8    32    1
    38    10    33    1
    39    17    34    1
    40    20    35    1
    41    21    36    1
    42    24    37    1
    43    25    38    1
    44    26    39    1
