@<TRIPOS>MOLECULE
*****
 39 44 0 0 0
SMALL
GASTEIGER

@<TRIPOS>ATOM
      1 SI         -4.8155    2.6239   -0.5886 Si      1  UNL1        0.0000
      2 C          -5.4224    0.8898   -0.2562 C.2     1  UNL1        0.0000
      3 C          -4.3912    0.0390   -0.0953 C.ar    1  UNL1        0.0000
      4 C          -4.5455   -1.3736    0.1762 C.ar    1  UNL1        0.0000
      5 C          -3.4647   -2.1586    0.3255 C.ar    1  UNL1        0.0000
      6 C          -2.1067   -1.6014    0.2165 C.ar    1  UNL1        0.0000
      7 C          -0.9325   -2.3662    0.3592 C.ar    1  UNL1        0.0000
      8 C          -0.8966   -3.7190    0.6128 C.ar    1  UNL1        0.0000
      9 S           0.7106   -4.3164    0.7094 S.2     1  UNL1        0.0000
     10 C           1.3794   -2.7662    0.4106 C.ar    1  UNL1        0.0000
     11 C           0.4031   -1.8085    0.2510 C.ar    1  UNL1        0.0000
     12 C           0.6736   -0.4514   -0.0065 C.ar    1  UNL1        0.0000
     13 C          -0.5140    0.3127   -0.1548 C.ar    1  UNL1        0.0000
     14 C          -1.8442   -0.2162   -0.0508 C.ar    1  UNL1        0.0000
     15 C          -3.0455    0.6483   -0.2144 C.ar    1  UNL1        0.0000
     16 C          -3.0616    1.9743   -0.4680 C.2     1  UNL1        0.0000
     17 C           2.0094    0.1242   -0.1142 C.ar    1  UNL1        0.0000
     18 C           2.5133    0.5165   -1.3561 C.ar    1  UNL1        0.0000
     19 C           3.7917    1.0751   -1.4758 C.ar    1  UNL1        0.0000
     20 C           4.6017    1.2580   -0.3317 C.ar    1  UNL1        0.0000
     21 C           5.9245    1.7991   -0.2007 C.ar    1  UNL1        0.0000
     22 C           6.3721    1.8085    1.0996 C.ar    1  UNL1        0.0000
     23 S           5.2150    1.1709    2.1771 S.2     1  UNL1        0.0000
     24 C           4.0888    0.8691    0.9075 C.ar    1  UNL1        0.0000
     25 C           2.8020    0.3069    1.0307 C.ar    1  UNL1        0.0000
     26 H          -5.1459    3.5635    0.5097 H       1  UNL1        0.0000
     27 H          -5.1497    3.0916   -1.9555 H       1  UNL1        0.0000
     28 H          -6.4749    0.6600   -0.2098 H       1  UNL1        0.0000
     29 H          -5.5454   -1.7869    0.2575 H       1  UNL1        0.0000
     30 H          -3.5960   -3.2137    0.5289 H       1  UNL1        0.0000
     31 H          -1.7117   -4.4145    0.7478 H       1  UNL1        0.0000
     32 H           2.4545   -2.6545    0.3704 H       1  UNL1        0.0000
     33 H          -0.3899    1.3768   -0.3539 H       1  UNL1        0.0000
     34 H          -2.2286    2.6444   -0.5967 H       1  UNL1        0.0000
     35 H           1.9126    0.3833   -2.2547 H       1  UNL1        0.0000
     36 H           4.1603    1.3674   -2.4559 H       1  UNL1        0.0000
     37 H           6.5164    2.1643   -1.0309 H       1  UNL1        0.0000
     38 H           7.3253    2.1605    1.4692 H       1  UNL1        0.0000
     39 H           2.4282    0.0189    2.0107 H       1  UNL1        0.0000
@<TRIPOS>BOND
     1     1     2    1
     2     2     3    2
     3     3     4   ar
     4     4     5   ar
     5     5     6   ar
     6     6     7   ar
     7     7     8   ar
     8     8     9   ar
     9     9    10   ar
    10    10    11   ar
    11    11    12   ar
    12    12    13   ar
    13    13    14   ar
    14    14    15   ar
    15    15    16    2
    16    12    17    1
    17    17    18   ar
    18    18    19   ar
    19    19    20   ar
    20    20    21   ar
    21    21    22   ar
    22    22    23   ar
    23    23    24   ar
    24    24    25   ar
    25    16     1    1
    26    25    17   ar
    27    15     3   ar
    28    24    20   ar
    29    14     6   ar
    30    11     7   ar
    31     1    26    1
    32     1    27    1
    33     2    28    1
    34     4    29    1
    35     5    30    1
    36     8    31    1
    37    10    32    1
    38    13    33    1
    39    16    34    1
    40    18    35    1
    41    19    36    1
    42    21    37    1
    43    22    38    1
    44    25    39    1
