@<TRIPOS>MOLECULE
*****
 37 41 0 0 0
SMALL
GASTEIGER

@<TRIPOS>ATOM
      1 C          -7.7187   -0.3489   -1.0141 C.ar    1  UNL1       -0.0541
      2 C          -7.5716    0.0742   -2.3153 C.ar    1  UNL1       -0.0237
      3 S          -5.9408    0.4087   -2.7019 S.2     1  UNL1       -0.0966
      4 C          -5.4072   -0.0070   -1.1256 C.ar    1  UNL1        0.0208
      5 C          -6.4695   -0.4071   -0.3323 C.ar    1  UNL1       -0.0469
      6 C          -3.9845    0.0488   -0.7837 C.ar    1  UNL1        0.0068
      7 C          -3.3784   -0.9957   -0.0846 C.ar    1  UNL1       -0.0500
      8 C          -2.0264   -0.9135    0.2561 C.ar    1  UNL1       -0.0336
      9 C          -1.2863    0.2151   -0.0989 C.ar    1  UNL1        0.0891
     10 N          -1.8610    1.2446   -0.7794 N.ar    1  UNL1       -0.2528
     11 C          -3.1765    1.1366   -1.0999 C.ar    1  UNL1        0.0365
     12 C           0.1469    0.3632    0.2538 C.ar    1  UNL1        0.0891
     13 C           0.8627    1.5333   -0.0074 C.ar    1  UNL1       -0.0336
     14 C           2.2079    1.6179    0.3543 C.ar    1  UNL1       -0.0500
     15 C           2.8268    0.5317    0.9626 C.ar    1  UNL1        0.0074
     16 C           2.0479   -0.5932    1.1982 C.ar    1  UNL1        0.0365
     17 N           0.7374   -0.6998    0.8665 N.ar    1  UNL1       -0.2528
     18 C           4.2349    0.5580    1.3156 C.ar    1  UNL1        0.0290
     19 S           4.7806    1.4285    2.7028 S.2     1  UNL1       -0.0949
     20 C           6.4314    0.9919    2.4494 C.ar    1  UNL1       -0.0094
     21 C           6.5514    0.2045    1.3363 C.ar    1  UNL1        0.0269
     22 S           7.9928   -0.5500    0.5655 S.2     1  UNL1       -0.0961
     23 C           6.8449   -1.1775   -0.6142 C.ar    1  UNL1       -0.0231
     24 C           5.5022   -0.8326   -0.4161 C.ar    1  UNL1       -0.0459
     25 C           5.3151   -0.0192    0.7328 C.ar    1  UNL1        0.0040
     26 H          -8.6736   -0.6141   -0.5743 H       1  UNL1        0.0623
     27 H          -8.3437    0.2055   -3.0601 H       1  UNL1        0.0693
     28 H          -6.3587   -0.7229    0.6988 H       1  UNL1        0.0629
     29 H          -3.9398   -1.8853    0.1873 H       1  UNL1        0.0625
     30 H          -1.5592   -1.7305    0.7983 H       1  UNL1        0.0640
     31 H          -3.5722    1.9977   -1.6336 H       1  UNL1        0.0836
     32 H           0.3774    2.3796   -0.4861 H       1  UNL1        0.0640
     33 H           2.7626    2.5319    0.1535 H       1  UNL1        0.0625
     34 H           2.4623   -1.4702    1.6844 H       1  UNL1        0.0836
     35 H           7.2242    1.3230    3.1079 H       1  UNL1        0.0705
     36 H           7.2453   -1.7869   -1.4143 H       1  UNL1        0.0694
     37 H           4.7135   -1.1616   -1.0820 H       1  UNL1        0.0629
@<TRIPOS>BOND
     1     1     2   ar
     2     2     3   ar
     3     3     4   ar
     4     4     5   ar
     5     4     6    1
     6     6     7   ar
     7     7     8   ar
     8     8     9   ar
     9     9    10   ar
    10    10    11   ar
    11     9    12    1
    12    12    13   ar
    13    13    14   ar
    14    14    15   ar
    15    15    16   ar
    16    16    17   ar
    17    15    18    1
    18    18    19   ar
    19    19    20   ar
    20    20    21   ar
    21    21    22   ar
    22    22    23   ar
    23    23    24   ar
    24    24    25   ar
    25     5     1   ar
    26    11     6   ar
    27    17    12   ar
    28    25    18   ar
    29    25    21   ar
    30     1    26    1
    31     2    27    1
    32     5    28    1
    33     7    29    1
    34     8    30    1
    35    11    31    1
    36    13    32    1
    37    14    33    1
    38    16    34    1
    39    20    35    1
    40    23    36    1
    41    24    37    1
