@<TRIPOS>MOLECULE
*****
 38 43 0 0 0
SMALL
GASTEIGER

@<TRIPOS>ATOM
      1 C           7.7904   -0.4702   -0.2512 C.ar    1  UNL1       -0.0541
      2 C           7.7619   -1.4741   -1.1911 C.ar    1  UNL1       -0.0237
      3 S           6.1657   -1.8962   -1.6290 S.2     1  UNL1       -0.0966
      4 C           5.4854   -0.7297   -0.5657 C.ar    1  UNL1        0.0208
      5 C           6.4792   -0.0443    0.1119 C.ar    1  UNL1       -0.0469
      6 C           4.0302   -0.5857   -0.4486 C.ar    1  UNL1        0.0068
      7 C           3.1790   -0.6043   -1.5566 C.ar    1  UNL1       -0.0500
      8 C           1.8017   -0.4474   -1.3853 C.ar    1  UNL1       -0.0346
      9 C           1.2995   -0.2677   -0.1006 C.ar    1  UNL1        0.0787
     10 N           2.0953   -0.2433    0.9922 N.ar    1  UNL1       -0.2538
     11 C           3.4277   -0.4007    0.7935 C.ar    1  UNL1        0.0365
     12 C          -0.1208   -0.1029    0.1652 C.ar    1  UNL1        0.0524
     13 S          -1.3157   -1.1460   -0.5063 S.2     1  UNL1       -0.0844
     14 C          -2.6219   -0.3343    0.2739 C.ar    1  UNL1        0.0354
     15 C          -3.9879   -0.7256    0.0946 C.ar    1  UNL1        0.0373
     16 S          -4.5280   -2.3782    0.2568 S.2     1  UNL1       -0.0918
     17 C          -6.1862   -1.9931   -0.0710 C.ar    1  UNL1        0.0192
     18 C          -6.2586   -0.6679   -0.2865 C.ar    1  UNL1        0.1424
     19 O          -7.3808    0.0411   -0.5839 O.2     1  UNL1       -0.4624
     20 C          -6.8320    1.3052   -0.7006 C.ar    1  UNL1        0.0932
     21 C          -5.4491    1.3530   -0.4819 C.ar    1  UNL1       -0.0150
     22 C          -5.0762    0.0252   -0.1984 C.ar    1  UNL1        0.0354
     23 C          -2.0954    0.6838    1.0002 C.ar    1  UNL1        0.0051
     24 C          -2.6510    1.6722    1.8580 C.ar    1  UNL1       -0.0458
     25 C          -1.6847    2.5278    2.3958 C.ar    1  UNL1       -0.0231
     26 S          -0.0231    2.2194    1.9231 S.2     1  UNL1       -0.0954
     27 C          -0.7067    0.8440    0.9627 C.ar    1  UNL1        0.0362
     28 H           8.7062   -0.0604    0.1571 H       1  UNL1        0.0623
     29 H           8.6023   -1.9832   -1.6428 H       1  UNL1        0.0693
     30 H           6.2799    0.7396    0.8333 H       1  UNL1        0.0629
     31 H           3.5732   -0.7282   -2.5622 H       1  UNL1        0.0625
     32 H           1.1458   -0.4563   -2.2496 H       1  UNL1        0.0639
     33 H           4.0157   -0.3804    1.7078 H       1  UNL1        0.0836
     34 H          -6.9804   -2.7248   -0.0895 H       1  UNL1        0.0731
     35 H          -7.5531    2.0735   -0.9484 H       1  UNL1        0.1030
     36 H          -4.8276    2.2355   -0.5342 H       1  UNL1        0.0655
     37 H          -3.7033    1.7712    2.0952 H       1  UNL1        0.0629
     38 H          -1.8568    3.3533    3.0731 H       1  UNL1        0.0694
@<TRIPOS>BOND
     1     1     2   ar
     2     2     3   ar
     3     3     4   ar
     4     4     5   ar
     5     4     6    1
     6     6     7   ar
     7     7     8   ar
     8     8     9   ar
     9     9    10   ar
    10    10    11   ar
    11     9    12    1
    12    12    13   ar
    13    13    14   ar
    14    14    15    1
    15    15    16   ar
    16    16    17   ar
    17    17    18   ar
    18    18    19   ar
    19    19    20   ar
    20    20    21   ar
    21    21    22   ar
    22    14    23   ar
    23    23    24   ar
    24    24    25   ar
    25    25    26   ar
    26    26    27   ar
    27     5     1   ar
    28    11     6   ar
    29    27    12   ar
    30    22    15   ar
    31    27    23   ar
    32    22    18   ar
    33     1    28    1
    34     2    29    1
    35     5    30    1
    36     7    31    1
    37     8    32    1
    38    11    33    1
    39    17    34    1
    40    20    35    1
    41    21    36    1
    42    24    37    1
    43    25    38    1
