@<TRIPOS>MOLECULE
*****
 36 41 0 0 0
SMALL
GASTEIGER

@<TRIPOS>ATOM
      1 C           6.7705   -1.2074   -0.0565 C.ar    1  UNL1       -0.0540
      2 C           7.5376   -0.2131    0.5062 C.ar    1  UNL1       -0.0236
      3 S           6.5856    1.0968    1.0548 S.2     1  UNL1       -0.0936
      4 C           5.1310    0.3474    0.5446 C.ar    1  UNL1        0.0544
      5 C           5.3825   -0.8831   -0.0337 C.ar    1  UNL1       -0.0440
      6 C           3.8377    0.9546    0.7153 C.ar    1  UNL1        0.1422
      7 C           3.4877    2.1709    1.2726 C.ar    1  UNL1       -0.0147
      8 C           2.0778    2.2794    1.1892 C.ar    1  UNL1       -0.0147
      9 C           1.6079    1.1259    0.5831 C.ar    1  UNL1        0.1434
     10 O           2.6888    0.3323    0.3024 O.2     1  UNL1       -0.4538
     11 C           0.2586    0.7467    0.2690 C.ar    1  UNL1        0.0693
     12 S          -1.1122    1.7267    0.6415 S.2     1  UNL1       -0.0829
     13 C          -2.2406    0.6078   -0.0208 C.ar    1  UNL1        0.0355
     14 C          -3.6544    0.8350    0.0015 C.ar    1  UNL1        0.0373
     15 S          -4.3812    2.3293   -0.5346 S.2     1  UNL1       -0.0918
     16 C          -5.9994    1.7931   -0.2185 C.ar    1  UNL1        0.0192
     17 C          -5.9231    0.5422    0.2685 C.ar    1  UNL1        0.1424
     18 O          -6.9681   -0.2402    0.6506 O.2     1  UNL1       -0.4624
     19 C          -6.2770   -1.3658    1.0608 C.ar    1  UNL1        0.0932
     20 C          -4.8859   -1.2651    0.9287 C.ar    1  UNL1       -0.0150
     21 C          -4.6603    0.0162    0.3904 C.ar    1  UNL1        0.0354
     22 C          -1.5359   -0.4483   -0.4972 C.ar    1  UNL1        0.0052
     23 C          -1.9009   -1.6460   -1.1701 C.ar    1  UNL1       -0.0458
     24 C          -0.8004   -2.4486   -1.4832 C.ar    1  UNL1       -0.0231
     25 S           0.7704   -1.8334   -1.0054 S.2     1  UNL1       -0.0954
     26 C          -0.1446   -0.4072   -0.3546 C.ar    1  UNL1        0.0377
     27 H           7.1817   -2.1224   -0.4648 H       1  UNL1        0.0623
     28 H           8.6125   -0.1907    0.6226 H       1  UNL1        0.0693
     29 H           4.5998   -1.5234   -0.4247 H       1  UNL1        0.0630
     30 H           4.1674    2.8998    1.6919 H       1  UNL1        0.0656
     31 H           1.4769    3.1097    1.5340 H       1  UNL1        0.0656
     32 H          -6.8776    2.3962   -0.3961 H       1  UNL1        0.0731
     33 H          -6.9140   -2.1599    1.4286 H       1  UNL1        0.1030
     34 H          -4.1653   -2.0237    1.1992 H       1  UNL1        0.0655
     35 H          -2.9128   -1.9291   -1.4338 H       1  UNL1        0.0629
     36 H          -0.8204   -3.4027   -1.9924 H       1  UNL1        0.0694
@<TRIPOS>BOND
     1     1     2   ar
     2     2     3   ar
     3     3     4   ar
     4     4     5   ar
     5     4     6    1
     6     6     7   ar
     7     7     8   ar
     8     8     9   ar
     9     9    10   ar
    10     9    11    1
    11    11    12   ar
    12    12    13   ar
    13    13    14    1
    14    14    15   ar
    15    15    16   ar
    16    16    17   ar
    17    17    18   ar
    18    18    19   ar
    19    19    20   ar
    20    20    21   ar
    21    13    22   ar
    22    22    23   ar
    23    23    24   ar
    24    24    25   ar
    25    25    26   ar
    26     5     1   ar
    27    10     6   ar
    28    26    11   ar
    29    21    14   ar
    30    26    22   ar
    31    21    17   ar
    32     1    27    1
    33     2    28    1
    34     5    29    1
    35     7    30    1
    36     8    31    1
    37    16    32    1
    38    19    33    1
    39    20    34    1
    40    23    35    1
    41    24    36    1
