@<TRIPOS>MOLECULE
*****
 37 41 0 0 0
SMALL
GASTEIGER

@<TRIPOS>ATOM
      1 C           7.1200    0.1604   -1.4064 C.ar    1  UNL1       -0.0541
      2 C           7.6694   -0.5330   -0.3546 C.ar    1  UNL1       -0.0237
      3 S           6.4855   -1.0297    0.7698 S.2     1  UNL1       -0.0961
      4 C           5.2036   -0.3194   -0.1366 C.ar    1  UNL1        0.0259
      5 C           5.7043    0.2825   -1.2806 C.ar    1  UNL1       -0.0464
      6 C           3.8245   -0.3897    0.3096 C.ar    1  UNL1        0.0265
      7 C           3.3199   -1.0219    1.4334 C.ar    1  UNL1       -0.0458
      8 C           1.9059   -0.8870    1.5619 C.ar    1  UNL1       -0.0463
      9 C           1.3507   -0.1550    0.5336 C.ar    1  UNL1        0.0206
     10 S           2.5512    0.3645   -0.5681 S.2     1  UNL1       -0.0877
     11 C          -0.0402    0.1971    0.3067 C.ar    1  UNL1       -0.0021
     12 C          -0.5226    1.5209    0.1508 C.ar    1  UNL1       -0.0523
     13 C          -1.9064    1.8557   -0.0501 C.ar    1  UNL1       -0.0523
     14 C          -2.9534    0.9020   -0.1180 C.ar    1  UNL1       -0.0021
     15 C          -4.3521    1.2240   -0.3447 C.ar    1  UNL1        0.0199
     16 C          -5.2082    0.7525   -1.3226 C.ar    1  UNL1       -0.0469
     17 C          -6.5182    1.3044   -1.2186 C.ar    1  UNL1       -0.0541
     18 C          -6.6220    2.1831   -0.1646 C.ar    1  UNL1       -0.0237
     19 S          -5.1482    2.3401    0.6874 S.2     1  UNL1       -0.0966
     20 C          -2.4647   -0.4028    0.0352 C.ar    1  UNL1        0.0082
     21 C          -3.1782   -1.5781    0.0446 C.ar    1  UNL1        0.0100
     22 N          -2.2779   -2.6061    0.2179 N.ar    1  UNL1       -0.3659
     23 C          -0.9992   -2.1062    0.3311 C.ar    1  UNL1        0.0100
     24 C          -1.0831   -0.7368    0.2406 C.ar    1  UNL1        0.0082
     25 H           7.7011    0.5618   -2.2275 H       1  UNL1        0.0623
     26 H           8.7109   -0.7732   -0.1908 H       1  UNL1        0.0693
     27 H           5.0880    0.7948   -2.0097 H       1  UNL1        0.0629
     28 H           3.9296   -1.5637    2.1461 H       1  UNL1        0.0629
     29 H           1.3253   -1.3050    2.3757 H       1  UNL1        0.0629
     30 H           0.1897    2.3460    0.1922 H       1  UNL1        0.0624
     31 H          -2.1532    2.9121   -0.1639 H       1  UNL1        0.0624
     32 H          -4.9039    0.0446   -2.0844 H       1  UNL1        0.0629
     33 H          -7.3396    1.0700   -1.8842 H       1  UNL1        0.0623
     34 H          -7.4917    2.7445    0.1477 H       1  UNL1        0.0693
     35 H          -4.2345   -1.7888   -0.0528 H       1  UNL1        0.0813
     36 H          -2.5209   -3.5876    0.2570 H       1  UNL1        0.1648
     37 H          -0.1613   -2.7771    0.4639 H       1  UNL1        0.0813
@<TRIPOS>BOND
     1     1     2   ar
     2     2     3   ar
     3     3     4   ar
     4     4     5   ar
     5     4     6    1
     6     6     7   ar
     7     7     8   ar
     8     8     9   ar
     9     9    10   ar
    10     9    11    1
    11    11    12   ar
    12    12    13   ar
    13    13    14   ar
    14    14    15    1
    15    15    16   ar
    16    16    17   ar
    17    17    18   ar
    18    18    19   ar
    19    14    20   ar
    20    20    21   ar
    21    21    22   ar
    22    22    23   ar
    23    23    24   ar
    24     5     1   ar
    25    10     6   ar
    26    24    11   ar
    27    19    15   ar
    28    24    20   ar
    29     1    25    1
    30     2    26    1
    31     5    27    1
    32     7    28    1
    33     8    29    1
    34    12    30    1
    35    13    31    1
    36    16    32    1
    37    17    33    1
    38    18    34    1
    39    21    35    1
    40    22    36    1
    41    23    37    1
