@<TRIPOS>MOLECULE
*****
 37 42 0 0 0
SMALL
GASTEIGER

@<TRIPOS>ATOM
      1 C           7.5080   -1.0562    1.5669 C.ar    1  UNL1       -0.0541
      2 C           8.1475   -0.4963    0.4869 C.ar    1  UNL1       -0.0237
      3 S           7.0468    0.2031   -0.6139 S.2     1  UNL1       -0.0961
      4 C           5.6811   -0.2335    0.3420 C.ar    1  UNL1        0.0259
      5 C           6.0920   -0.9049    1.4831 C.ar    1  UNL1       -0.0464
      6 C           4.3282    0.0960   -0.0666 C.ar    1  UNL1        0.0265
      7 C           3.9167    0.7502   -1.2151 C.ar    1  UNL1       -0.0458
      8 C           2.5003    0.9057   -1.2923 C.ar    1  UNL1       -0.0458
      9 C           1.8499    0.3686   -0.2010 C.ar    1  UNL1        0.0276
     10 S           2.9666   -0.3182    0.8989 S.2     1  UNL1       -0.0872
     11 C           0.4363    0.3550    0.0508 C.ar    1  UNL1        0.0408
     12 S          -0.4343   -1.0633    0.5016 S.2     1  UNL1       -0.0854
     13 C          -1.9538   -0.2478    0.5710 C.ar    1  UNL1        0.0368
     14 C          -3.1781   -0.9249    0.9066 C.ar    1  UNL1        0.0539
     15 S          -3.2922   -1.9176    2.3168 S.2     1  UNL1       -0.0918
     16 C          -4.9364   -2.3036    2.0273 C.ar    1  UNL1        0.0038
     17 C          -5.3963   -1.6956    0.8891 C.ar    1  UNL1        0.0968
     18 N          -6.6724   -1.8456    0.4377 N.ar    1  UNL1       -0.2514
     19 C          -6.8610   -1.1441   -0.7132 C.ar    1  UNL1        0.0464
     20 C          -5.8873   -0.3675   -1.3521 C.ar    1  UNL1        0.0464
     21 N          -4.6089   -0.1976   -0.9170 N.ar    1  UNL1       -0.2508
     22 C          -4.3857   -0.8941    0.2378 C.ar    1  UNL1        0.1044
     23 C          -1.7322    1.0518    0.2491 C.ar    1  UNL1        0.0052
     24 C          -2.5670    2.1985    0.1539 C.ar    1  UNL1       -0.0458
     25 C          -1.8645    3.3545   -0.1994 C.ar    1  UNL1       -0.0231
     26 S          -0.1365    3.1706   -0.4396 S.2     1  UNL1       -0.0955
     27 C          -0.4163    1.4244   -0.0406 C.ar    1  UNL1        0.0352
     28 H           8.0264   -1.5508    2.3792 H       1  UNL1        0.0623
     29 H           9.2101   -0.4636    0.2896 H       1  UNL1        0.0693
     30 H           5.4119   -1.2798    2.2385 H       1  UNL1        0.0629
     31 H           4.5935    1.1087   -1.9812 H       1  UNL1        0.0629
     32 H           1.9912    1.3863   -2.1194 H       1  UNL1        0.0629
     33 H          -5.4810   -2.9524    2.6978 H       1  UNL1        0.0715
     34 H          -7.8593   -1.2213   -1.1353 H       1  UNL1        0.0845
     35 H          -6.1283    0.1584   -2.2720 H       1  UNL1        0.0845
     36 H          -3.6365    2.2024    0.3273 H       1  UNL1        0.0629
     37 H          -2.2784    4.3444   -0.3355 H       1  UNL1        0.0694
@<TRIPOS>BOND
     1     1     2   ar
     2     2     3   ar
     3     3     4   ar
     4     4     5   ar
     5     4     6    1
     6     6     7   ar
     7     7     8   ar
     8     8     9   ar
     9     9    10   ar
    10     9    11    1
    11    11    12   ar
    12    12    13   ar
    13    13    14    1
    14    14    15   ar
    15    15    16   ar
    16    16    17   ar
    17    17    18   ar
    18    18    19   ar
    19    19    20   ar
    20    20    21   ar
    21    21    22   ar
    22    13    23   ar
    23    23    24   ar
    24    24    25   ar
    25    25    26   ar
    26    26    27   ar
    27     5     1   ar
    28    10     6   ar
    29    27    11   ar
    30    22    14   ar
    31    27    23   ar
    32    22    17   ar
    33     1    28    1
    34     2    29    1
    35     5    30    1
    36     7    31    1
    37     8    32    1
    38    16    33    1
    39    19    34    1
    40    20    35    1
    41    24    36    1
    42    25    37    1
