@<TRIPOS>MOLECULE
*****
 31 35 0 0 0
SMALL
GASTEIGER

@<TRIPOS>ATOM
      1 C           6.1582    0.7252    0.3655 C.ar    1  UNL1       -0.0541
      2 C           6.4873   -0.3483   -0.4248 C.ar    1  UNL1       -0.0237
      3 S           5.1049   -1.1730   -0.9843 S.2     1  UNL1       -0.0966
      4 C           4.0204   -0.1025   -0.1742 C.ar    1  UNL1        0.0208
      5 C           4.7461    0.8651    0.5084 C.ar    1  UNL1       -0.0469
      6 C           2.5494   -0.2790   -0.2597 C.ar    1  UNL1        0.0088
      7 C           1.9436   -1.3140   -0.9946 C.ar    1  UNL1        0.0367
      8 N           0.6103   -1.5576   -1.1330 N.ar    1  UNL1       -0.2508
      9 C          -0.1536   -0.6741   -0.4682 C.ar    1  UNL1        0.1124
     10 C           0.3133    0.3909    0.2926 C.ar    1  UNL1        0.0681
     11 C           1.6891    0.6107    0.4124 C.ar    1  UNL1       -0.0265
     12 N          -0.7737    1.0611    0.8116 N.ar    1  UNL1       -0.3500
     13 C          -1.9087    0.4238    0.3813 C.ar    1  UNL1        0.0932
     14 C          -3.3119    0.4649    0.4520 C.ar    1  UNL1        0.1124
     15 N          -4.0745    1.3524    1.1197 N.ar    1  UNL1       -0.2514
     16 C          -5.4002    1.1154    0.9859 C.ar    1  UNL1        0.0285
     17 C          -5.9715    0.0797    0.2494 C.ar    1  UNL1       -0.0416
     18 C          -5.1506   -0.8227   -0.4307 C.ar    1  UNL1       -0.0348
     19 C          -3.7792   -0.6028   -0.3107 C.ar    1  UNL1        0.0675
     20 N          -2.6915   -1.2720   -0.8290 N.ar    1  UNL1       -0.3500
     21 C          -1.5568   -0.6342   -0.3983 C.ar    1  UNL1        0.0932
     22 H           6.8911    1.3802    0.8205 H       1  UNL1        0.0623
     23 H           7.4755   -0.6894   -0.7017 H       1  UNL1        0.0693
     24 H           4.2951    1.6547    1.0958 H       1  UNL1        0.0629
     25 H           2.5442   -2.0390   -1.5393 H       1  UNL1        0.0836
     26 H           2.0566    1.4398    1.0045 H       1  UNL1        0.0645
     27 H          -0.7895    1.8797    1.4073 H       1  UNL1        0.1661
     28 H          -6.0376    1.8192    1.5163 H       1  UNL1        0.0830
     29 H          -7.0511   -0.0231    0.2061 H       1  UNL1        0.0633
     30 H          -5.5578   -1.6405   -1.0135 H       1  UNL1        0.0639
     31 H          -2.6771   -2.0905   -1.4247 H       1  UNL1        0.1661
@<TRIPOS>BOND
     1     1     2   ar
     2     2     3   ar
     3     3     4   ar
     4     4     5   ar
     5     4     6    1
     6     6     7   ar
     7     7     8   ar
     8     8     9   ar
     9     9    10   ar
    10    10    11   ar
    11    10    12   ar
    12    12    13   ar
    13    13    14   ar
    14    14    15   ar
    15    15    16   ar
    16    16    17   ar
    17    17    18   ar
    18    18    19   ar
    19    19    20   ar
    20    20    21   ar
    21     5     1   ar
    22    11     6   ar
    23    21    13   ar
    24    21     9   ar
    25    19    14   ar
    26     1    22    1
    27     2    23    1
    28     5    24    1
    29     7    25    1
    30    11    26    1
    31    12    27    1
    32    16    28    1
    33    17    29    1
    34    18    30    1
    35    20    31    1
