@<TRIPOS>MOLECULE
*****
 45 51 0 0 0
SMALL
GASTEIGER

@<TRIPOS>ATOM
      1 C           7.3247   -0.4078    0.0720 C.ar    1  UNL1       -0.0541
      2 C           7.4355    0.8465   -0.4812 C.ar    1  UNL1       -0.0237
      3 S           5.9087    1.5488   -0.7862 S.2     1  UNL1       -0.0966
      4 C           5.0713    0.1786   -0.1726 C.ar    1  UNL1        0.0208
      5 C           5.9634   -0.7940    0.2460 C.ar    1  UNL1       -0.0469
      6 C           3.6059    0.1402   -0.1679 C.ar    1  UNL1        0.0074
      7 C           2.9136   -1.0127   -0.4891 C.ar    1  UNL1        0.0365
      8 N           1.5558   -1.1407   -0.4904 N.ar    1  UNL1       -0.2537
      9 C           0.7328   -0.1182   -0.1687 C.ar    1  UNL1        0.0800
     10 C           1.4041    1.1000    0.1492 C.ar    1  UNL1        0.0123
     11 C           2.8174    1.2286    0.1663 C.ar    1  UNL1       -0.0422
     12 C           0.5076    2.1244    0.4574 C.ar    1  UNL1        0.0296
     13 C           0.8148    3.3864    0.8985 C.ar    1  UNL1        0.1000
     14 O          -0.3332    4.0666    1.1610 O.2     1  UNL1       -0.4698
     15 C          -1.3686    3.2285    0.8671 C.ar    1  UNL1        0.1000
     16 C          -0.9040    2.0336    0.3644 C.ar    1  UNL1        0.0288
     17 C          -1.6353    0.8813   -0.0538 C.ar    1  UNL1        0.0032
     18 C          -3.0534    0.8186   -0.3256 C.ar    1  UNL1       -0.0088
     19 C          -3.8740    1.9700   -0.4972 C.ar    1  UNL1       -0.0534
     20 C          -5.2476    1.9123   -0.7234 C.ar    1  UNL1       -0.0611
     21 C          -5.8559    0.6832   -0.8142 C.ar    1  UNL1       -0.0611
     22 C          -5.0733   -0.4657   -0.7162 C.ar    1  UNL1       -0.0534
     23 C          -3.6620   -0.4427   -0.4983 C.ar    1  UNL1       -0.0096
     24 C          -2.8578   -1.6277   -0.4535 C.ar    1  UNL1       -0.0095
     25 C          -3.4473   -2.9210   -0.5716 C.ar    1  UNL1       -0.0534
     26 C          -2.7216   -4.1070   -0.5284 C.ar    1  UNL1       -0.0611
     27 C          -1.3632   -4.0425   -0.3498 C.ar    1  UNL1       -0.0611
     28 C          -0.7509   -2.7935   -0.2330 C.ar    1  UNL1       -0.0534
     29 C          -1.4355   -1.5440   -0.3023 C.ar    1  UNL1       -0.0075
     30 C          -0.7568   -0.2649   -0.1761 C.ar    1  UNL1        0.0170
     31 H           8.1776   -1.0199    0.3393 H       1  UNL1        0.0623
     32 H           8.3407    1.3866   -0.7233 H       1  UNL1        0.0693
     33 H           5.6582   -1.7431    0.6709 H       1  UNL1        0.0629
     34 H           3.4362   -1.9212   -0.7797 H       1  UNL1        0.0836
     35 H           3.2763    2.1735    0.4407 H       1  UNL1        0.0631
     36 H           1.7280    3.9261    1.1064 H       1  UNL1        0.1036
     37 H          -2.3383    3.6393    1.1059 H       1  UNL1        0.1036
     38 H          -3.4407    2.9636   -0.5234 H       1  UNL1        0.0624
     39 H          -5.8236    2.8253   -0.8439 H       1  UNL1        0.0618
     40 H          -6.9249    0.6058   -0.9909 H       1  UNL1        0.0618
     41 H          -5.6109   -1.4013   -0.8354 H       1  UNL1        0.0624
     42 H          -4.5183   -3.0456   -0.6961 H       1  UNL1        0.0624
     43 H          -3.2242   -5.0650   -0.6208 H       1  UNL1        0.0618
     44 H          -0.7672   -4.9485   -0.2897 H       1  UNL1        0.0618
     45 H           0.3161   -2.8407   -0.0458 H       1  UNL1        0.0624
@<TRIPOS>BOND
     1     1     2   ar
     2     2     3   ar
     3     3     4   ar
     4     4     5   ar
     5     4     6    1
     6     6     7   ar
     7     7     8   ar
     8     8     9   ar
     9     9    10   ar
    10    10    11   ar
    11    10    12   ar
    12    12    13   ar
    13    13    14   ar
    14    14    15   ar
    15    15    16   ar
    16    16    17   ar
    17    17    18   ar
    18    18    19   ar
    19    19    20   ar
    20    20    21   ar
    21    21    22   ar
    22    22    23   ar
    23    23    24   ar
    24    24    25   ar
    25    25    26   ar
    26    26    27   ar
    27    27    28   ar
    28    28    29   ar
    29    29    30   ar
    30     5     1   ar
    31    11     6   ar
    32    16    12   ar
    33    30    17   ar
    34    30     9   ar
    35    23    18   ar
    36    29    24   ar
    37     1    31    1
    38     2    32    1
    39     5    33    1
    40     7    34    1
    41    11    35    1
    42    13    36    1
    43    15    37    1
    44    19    38    1
    45    20    39    1
    46    21    40    1
    47    22    41    1
    48    25    42    1
    49    26    43    1
    50    27    44    1
    51    28    45    1
