@<TRIPOS>MOLECULE
*****
 35 40 0 0 0
SMALL
GASTEIGER

@<TRIPOS>ATOM
      1 C           6.5855   -1.0666    0.6137 C.ar    1  UNL1       -0.0541
      2 C           6.9947    0.2155    0.3410 C.ar    1  UNL1       -0.0237
      3 S           5.6785    1.2449    0.0061 S.2     1  UNL1       -0.0966
      4 C           4.5170   -0.0130    0.2202 C.ar    1  UNL1        0.0209
      5 C           5.1670   -1.1966    0.5443 C.ar    1  UNL1       -0.0469
      6 C           3.0641    0.2384    0.0587 C.ar    1  UNL1        0.0103
      7 C           2.5360    1.4996   -0.2748 C.ar    1  UNL1        0.0367
      8 N           1.2239    1.8299   -0.4448 N.ar    1  UNL1       -0.2505
      9 C           0.3741    0.7925   -0.2611 C.ar    1  UNL1        0.1174
     10 C           0.7993   -0.4907    0.0703 C.ar    1  UNL1        0.1551
     11 C           2.1436   -0.8075    0.2394 C.ar    1  UNL1       -0.0075
     12 O          -0.2584   -1.3509    0.1977 O.2     1  UNL1       -0.4510
     13 C          -1.4020   -0.6219   -0.0541 C.ar    1  UNL1        0.1643
     14 C          -1.0057    0.6740   -0.3305 C.ar    1  UNL1        0.0590
     15 C          -2.0288    1.6021   -0.6206 C.ar    1  UNL1        0.0334
     16 C          -1.9851    2.9231   -0.9278 C.ar    1  UNL1        0.1002
     17 O          -3.2821    3.3367   -1.1164 O.2     1  UNL1       -0.4698
     18 C          -4.1017    2.2487   -0.9186 C.ar    1  UNL1        0.1000
     19 C          -3.3535    1.1377   -0.6049 C.ar    1  UNL1        0.0299
     20 C          -3.8105   -0.1735   -0.3291 C.ar    1  UNL1        0.0147
     21 C          -5.1283   -0.6675   -0.3060 C.ar    1  UNL1       -0.0503
     22 C          -5.3310   -2.0114   -0.0046 C.ar    1  UNL1       -0.0430
     23 C          -4.2260   -2.8135    0.2617 C.ar    1  UNL1        0.0284
     24 N          -2.9431   -2.3825    0.2508 N.ar    1  UNL1       -0.2512
     25 C          -2.7474   -1.0760   -0.0422 C.ar    1  UNL1        0.1144
     26 H           7.2669   -1.8744    0.8516 H       1  UNL1        0.0623
     27 H           8.0060    0.5984    0.3222 H       1  UNL1        0.0693
     28 H           4.6580   -2.1344    0.7290 H       1  UNL1        0.0629
     29 H           3.1900    2.3559   -0.4297 H       1  UNL1        0.0836
     30 H           2.4292   -1.8184    0.4970 H       1  UNL1        0.0662
     31 H          -1.2161    3.6731   -1.0498 H       1  UNL1        0.1036
     32 H          -5.1572    2.4479   -1.0398 H       1  UNL1        0.1036
     33 H          -5.9745   -0.0217   -0.5173 H       1  UNL1        0.0625
     34 H          -6.3311   -2.4309    0.0235 H       1  UNL1        0.0633
     35 H          -4.3513   -3.8669    0.5003 H       1  UNL1        0.0830
@<TRIPOS>BOND
     1     1     2   ar
     2     2     3   ar
     3     3     4   ar
     4     4     5   ar
     5     4     6    1
     6     6     7   ar
     7     7     8   ar
     8     8     9   ar
     9     9    10   ar
    10    10    11   ar
    11    10    12   ar
    12    12    13   ar
    13    13    14   ar
    14    14    15   ar
    15    15    16   ar
    16    16    17   ar
    17    17    18   ar
    18    18    19   ar
    19    19    20   ar
    20    20    21   ar
    21    21    22   ar
    22    22    23   ar
    23    23    24   ar
    24    24    25   ar
    25     5     1   ar
    26    11     6   ar
    27    25    13   ar
    28    14     9   ar
    29    19    15   ar
    30    25    20   ar
    31     1    26    1
    32     2    27    1
    33     5    28    1
    34     7    29    1
    35    11    30    1
    36    16    31    1
    37    18    32    1
    38    21    33    1
    39    22    34    1
    40    23    35    1
