@<TRIPOS>MOLECULE
*****
 37 43 0 0 0
SMALL
GASTEIGER

@<TRIPOS>ATOM
      1 C           6.7192   -1.3319   -0.2787 C.ar    1  UNL1       -0.0541
      2 C           7.1710   -0.3650    0.5854 C.ar    1  UNL1       -0.0237
      3 S           5.8942    0.5741    1.2117 S.2     1  UNL1       -0.0966
      4 C           4.6935   -0.2993    0.3327 C.ar    1  UNL1        0.0209
      5 C           5.3009   -1.2937   -0.4229 C.ar    1  UNL1       -0.0469
      6 C           3.2541    0.0420    0.4392 C.ar    1  UNL1        0.0103
      7 C           2.7706    1.0847    1.2505 C.ar    1  UNL1        0.0367
      8 N           1.4739    1.4734    1.4143 N.ar    1  UNL1       -0.2505
      9 C           0.5888    0.7435    0.6944 C.ar    1  UNL1        0.1172
     10 C           0.9721   -0.3053   -0.1344 C.ar    1  UNL1        0.1551
     11 C           2.3007   -0.6880   -0.2892 C.ar    1  UNL1       -0.0075
     12 O          -0.1099   -0.8749   -0.7448 O.2     1  UNL1       -0.4525
     13 C          -1.2248   -0.1940   -0.3142 C.ar    1  UNL1        0.1482
     14 C          -0.7962    0.7864    0.5583 C.ar    1  UNL1        0.0551
     15 C          -1.7831    1.6266    1.1379 C.ar    1  UNL1        0.0025
     16 C          -1.5334    2.6397    2.0156 C.ar    1  UNL1       -0.0158
     17 S          -3.0272    3.3753    2.4448 S.2     1  UNL1       -0.1038
     18 C          -3.9346    2.3022    1.4354 C.ar    1  UNL1       -0.0160
     19 C          -3.1365    1.3908    0.7728 C.ar    1  UNL1       -0.0022
     20 C          -3.6307    0.3938   -0.1217 C.ar    1  UNL1       -0.0039
     21 C          -5.0070    0.1882   -0.4644 C.ar    1  UNL1       -0.0512
     22 C          -5.4366   -0.8116   -1.3534 C.ar    1  UNL1       -0.0329
     23 C          -4.4331   -1.6351   -1.9169 C.ar    1  UNL1        0.1006
     24 N          -4.6550   -2.6367   -2.7815 N.ar    1  UNL1       -0.1908
     25 S          -3.1718   -3.2858   -3.1398 S.2     1  UNL1        0.1165
     26 N          -2.1842   -2.3288   -2.2174 N.ar    1  UNL1       -0.1900
     27 C          -2.9700   -1.4449   -1.5763 C.ar    1  UNL1        0.1111
     28 C          -2.5707   -0.4208   -0.6709 C.ar    1  UNL1        0.0538
     29 H           7.3708   -2.0340   -0.7845 H       1  UNL1        0.0623
     30 H           8.1920   -0.1642    0.8800 H       1  UNL1        0.0693
     31 H           4.7615   -1.9801   -1.0635 H       1  UNL1        0.0629
     32 H           3.4512    1.6930    1.8434 H       1  UNL1        0.0836
     33 H           2.5501   -1.5106   -0.9458 H       1  UNL1        0.0662
     34 H          -0.5955    2.9909    2.4256 H       1  UNL1        0.0700
     35 H          -5.0074    2.4260    1.4056 H       1  UNL1        0.0700
     36 H          -5.7744    0.8256   -0.0271 H       1  UNL1        0.0624
     37 H          -6.4827   -0.9514   -1.6001 H       1  UNL1        0.0640
@<TRIPOS>BOND
     1     1     2   ar
     2     2     3   ar
     3     3     4   ar
     4     4     5   ar
     5     4     6    1
     6     6     7   ar
     7     7     8   ar
     8     8     9   ar
     9     9    10   ar
    10    10    11   ar
    11    10    12   ar
    12    12    13   ar
    13    13    14   ar
    14    14    15   ar
    15    15    16   ar
    16    16    17   ar
    17    17    18   ar
    18    18    19   ar
    19    19    20   ar
    20    20    21   ar
    21    21    22   ar
    22    22    23   ar
    23    23    24   ar
    24    24    25   ar
    25    25    26   ar
    26    26    27   ar
    27    27    28   ar
    28     5     1   ar
    29    11     6   ar
    30    28    13   ar
    31    14     9   ar
    32    19    15   ar
    33    28    20   ar
    34    27    23   ar
    35     1    29    1
    36     2    30    1
    37     5    31    1
    38     7    32    1
    39    11    33    1
    40    16    34    1
    41    18    35    1
    42    21    36    1
    43    22    37    1
