@<TRIPOS>MOLECULE
*****
 36 41 0 0 0
SMALL
GASTEIGER

@<TRIPOS>ATOM
      1 C           6.4863   -1.1823    0.8925 C.ar    1  UNL1       -0.0541
      2 C           6.6795    0.1297    0.5363 C.ar    1  UNL1       -0.0237
      3 S           5.2086    0.9175    0.1901 S.2     1  UNL1       -0.0966
      4 C           4.2672   -0.4930    0.5118 C.ar    1  UNL1        0.0208
      5 C           5.1051   -1.5382    0.8782 C.ar    1  UNL1       -0.0469
      6 C           2.7906   -0.4797    0.3848 C.ar    1  UNL1        0.0074
      7 C           2.0363   -1.6328    0.6492 C.ar    1  UNL1        0.0366
      8 N           0.6824   -1.7454    0.5681 N.ar    1  UNL1       -0.2506
      9 C           0.0088   -0.6358    0.1970 C.ar    1  UNL1        0.1144
     10 C          -1.4032   -0.7448    0.1102 C.ar    1  UNL1        0.1642
     11 O          -2.1809   -1.8555    0.3605 O.2     1  UNL1       -0.4510
     12 C          -3.4812   -1.4870    0.1474 C.ar    1  UNL1        0.1545
     13 C          -4.5994   -2.2993    0.2847 C.ar    1  UNL1       -0.0158
     14 C          -5.8181   -1.6808    0.0075 C.ar    1  UNL1       -0.0401
     15 C          -5.8395   -0.3411   -0.3745 C.ar    1  UNL1        0.0285
     16 N          -4.7587    0.4625   -0.5124 N.ar    1  UNL1       -0.2511
     17 C          -3.5770   -0.1496   -0.2401 C.ar    1  UNL1        0.1173
     18 C          -2.2565    0.2817   -0.2523 C.ar    1  UNL1        0.0575
     19 C          -1.6581    1.5274   -0.5560 C.ar    1  UNL1        0.0129
     20 C          -2.2194    2.7062   -0.9373 C.ar    1  UNL1        0.0102
     21 N          -1.1528    3.5676   -1.0929 N.ar    1  UNL1       -0.3659
     22 C           0.0399    2.9161   -0.8085 C.ar    1  UNL1        0.0101
     23 C          -0.2586    1.6158   -0.4643 C.ar    1  UNL1        0.0095
     24 C           0.6526    0.5934   -0.0981 C.ar    1  UNL1        0.0137
     25 C           2.0608    0.6551    0.0018 C.ar    1  UNL1       -0.0421
     26 H           7.2932   -1.8570    1.1513 H       1  UNL1        0.0623
     27 H           7.6161    0.6653    0.4625 H       1  UNL1        0.0693
     28 H           4.7586   -2.5323    1.1314 H       1  UNL1        0.0629
     29 H           2.5125   -2.5614    0.9524 H       1  UNL1        0.0836
     30 H          -4.5195   -3.3356    0.5855 H       1  UNL1        0.0655
     31 H          -6.7461   -2.2382    0.0883 H       1  UNL1        0.0634
     32 H          -6.7887    0.1450   -0.5916 H       1  UNL1        0.0830
     33 H          -3.2401    3.0204   -1.1117 H       1  UNL1        0.0813
     34 H          -1.2290    4.5368   -1.3743 H       1  UNL1        0.1648
     35 H           0.9753    3.4540   -0.8831 H       1  UNL1        0.0813
     36 H           2.5530    1.5953   -0.2239 H       1  UNL1        0.0631
@<TRIPOS>BOND
     1     1     2   ar
     2     2     3   ar
     3     3     4   ar
     4     4     5   ar
     5     4     6    1
     6     6     7   ar
     7     7     8   ar
     8     8     9   ar
     9     9    10   ar
    10    10    11   ar
    11    11    12   ar
    12    12    13   ar
    13    13    14   ar
    14    14    15   ar
    15    15    16   ar
    16    16    17   ar
    17    17    18   ar
    18    18    19   ar
    19    19    20   ar
    20    20    21   ar
    21    21    22   ar
    22    22    23   ar
    23    23    24   ar
    24    24    25   ar
    25     5     1   ar
    26    25     6   ar
    27    24     9   ar
    28    18    10   ar
    29    23    19   ar
    30    17    12   ar
    31     1    26    1
    32     2    27    1
    33     5    28    1
    34     7    29    1
    35    13    30    1
    36    14    31    1
    37    15    32    1
    38    20    33    1
    39    21    34    1
    40    22    35    1
    41    25    36    1
