@<TRIPOS>MOLECULE
*****
 48 55 0 0 0
SMALL
GASTEIGER

@<TRIPOS>ATOM
      1 SI         -5.8805    0.9035   -2.8644 Si      1  UNL1        0.0000
      2 C          -6.6813    0.4884   -1.2382 C.2     1  UNL1        0.0000
      3 C          -5.7565    0.1966   -0.3039 C.ar    1  UNL1        0.0000
      4 C          -6.0943   -0.3244    0.9967 C.ar    1  UNL1        0.0000
      5 C          -5.1233   -0.7693    1.8079 C.ar    1  UNL1        0.0000
      6 C          -3.7026   -0.6531    1.4327 C.ar    1  UNL1        0.0000
      7 C          -2.6616   -1.1104    2.2519 C.ar    1  UNL1        0.0000
      8 C          -2.8616   -1.7976    3.4301 C.ar    1  UNL1        0.0000
      9 S          -1.3945   -2.1394    4.2361 S.2     1  UNL1        0.0000
     10 C          -0.4822   -1.3592    3.0132 C.ar    1  UNL1        0.0000
     11 C          -1.2530   -0.9241    1.9555 C.ar    1  UNL1        0.0000
     12 C          -0.7406   -0.2258    0.8049 C.ar    1  UNL1        0.0000
     13 C           0.6521   -0.0352    0.3948 C.ar    1  UNL1        0.0000
     14 C           1.7776   -0.7397    0.8568 C.ar    1  UNL1        0.0000
     15 N           3.0691   -0.5249    0.4975 N.ar    1  UNL1        0.0000
     16 C           3.3143    0.4396   -0.4113 C.ar    1  UNL1        0.0000
     17 C           2.2789    1.1616   -0.9872 C.ar    1  UNL1        0.0000
     18 C           0.9516    0.9097   -0.6008 C.ar    1  UNL1        0.0000
     19 C          -0.0866    1.6032   -1.2119 C.ar    1  UNL1        0.0000
     20 C          -1.4202    1.3144   -0.9097 C.ar    1  UNL1        0.0000
     21 C          -1.8196    0.3517    0.0382 C.ar    1  UNL1        0.0000
     22 C          -3.2348    0.0260    0.2573 C.ar    1  UNL1        0.0000
     23 C          -4.3392    0.3359   -0.7277 C.ar    1  UNL1        0.0000
     24 C          -4.2217    0.5963   -2.0494 C.2     1  UNL1        0.0000
     25 C           4.7330    0.6239   -0.7377 C.ar    1  UNL1        0.0000
     26 S           5.3090    1.9434   -1.7362 S.2     1  UNL1        0.0000
     27 C           6.9740    1.4730   -1.6319 C.ar    1  UNL1        0.0000
     28 C           7.0396    0.3684   -0.8652 C.ar    1  UNL1        0.0000
     29 N           8.1634   -0.3272   -0.5268 N.ar    1  UNL1        0.0000
     30 C           7.6260   -1.3435    0.2597 C.ar    1  UNL1        0.0000
     31 C           6.2235   -1.2284    0.3670 C.ar    1  UNL1        0.0000
     32 C           5.8331   -0.0862   -0.3836 C.ar    1  UNL1        0.0000
     33 H          -6.1812   -0.0901   -3.9228 H       1  UNL1        0.0000
     34 H          -6.0596    2.3249   -3.2470 H       1  UNL1        0.0000
     35 H          -7.7530    0.4171   -1.1404 H       1  UNL1        0.0000
     36 H          -7.1373   -0.3969    1.2864 H       1  UNL1        0.0000
     37 H          -5.3955   -1.1793    2.7720 H       1  UNL1        0.0000
     38 H          -3.7828   -2.1172    3.8944 H       1  UNL1        0.0000
     39 H           0.5746   -1.2605    3.1973 H       1  UNL1        0.0000
     40 H           1.6821   -1.5876    1.5248 H       1  UNL1        0.0000
     41 H           2.4835    1.9103   -1.7454 H       1  UNL1        0.0000
     42 H           0.1193    2.3679   -1.9593 H       1  UNL1        0.0000
     43 H          -2.1623    1.9295   -1.4130 H       1  UNL1        0.0000
     44 H          -3.3333    0.6245   -2.6564 H       1  UNL1        0.0000
     45 H           7.7668    2.0201   -2.1218 H       1  UNL1        0.0000
     46 H           9.1215   -0.1337   -0.7904 H       1  UNL1        0.0000
     47 H           8.2900   -2.0818    0.6904 H       1  UNL1        0.0000
     48 H           5.5761   -1.8942    0.9231 H       1  UNL1        0.0000
@<TRIPOS>BOND
     1     1     2    1
     2     2     3    2
     3     3     4   ar
     4     4     5   ar
     5     5     6   ar
     6     6     7   ar
     7     7     8   ar
     8     8     9   ar
     9     9    10   ar
    10    10    11   ar
    11    11    12   ar
    12    12    13   ar
    13    13    14   ar
    14    14    15   ar
    15    15    16   ar
    16    16    17   ar
    17    17    18   ar
    18    18    19   ar
    19    19    20   ar
    20    20    21   ar
    21    21    22   ar
    22    22    23   ar
    23    23    24    2
    24    16    25    1
    25    25    26   ar
    26    26    27   ar
    27    27    28   ar
    28    28    29   ar
    29    29    30   ar
    30    30    31   ar
    31    31    32   ar
    32    24     1    1
    33    32    25   ar
    34    23     3   ar
    35    32    28   ar
    36    22     6   ar
    37    11     7   ar
    38    21    12   ar
    39    18    13   ar
    40     1    33    1
    41     1    34    1
    42     2    35    1
    43     4    36    1
    44     5    37    1
    45     8    38    1
    46    10    39    1
    47    14    40    1
    48    17    41    1
    49    19    42    1
    50    20    43    1
    51    24    44    1
    52    27    45    1
    53    29    46    1
    54    30    47    1
    55    31    48    1
