@<TRIPOS>MOLECULE
*****
 43 49 0 0 0
SMALL
GASTEIGER

@<TRIPOS>ATOM
      1 C           7.0094   -2.7068    0.5787 C.ar    1  UNL1       -0.0541
      2 C           7.7565   -1.5532    0.5466 C.ar    1  UNL1       -0.0237
      3 S           6.8017   -0.1852    0.1858 S.2     1  UNL1       -0.0961
      4 C           5.3624   -1.1179    0.0618 C.ar    1  UNL1        0.0266
      5 C           5.6329   -2.4556    0.3016 C.ar    1  UNL1       -0.0464
      6 C           4.0859   -0.5147   -0.2406 C.ar    1  UNL1        0.0373
      7 S           2.5739   -1.3255    0.1174 S.2     1  UNL1       -0.0833
      8 C           1.5952   -0.0332   -0.4701 C.ar    1  UNL1        0.0633
      9 C           0.1542   -0.0544   -0.5048 C.ar    1  UNL1        0.0014
     10 C          -0.6102    0.1143   -1.6874 C.ar    1  UNL1       -0.0522
     11 C          -2.0465    0.0860   -1.7322 C.ar    1  UNL1       -0.0523
     12 C          -2.8705   -0.1034   -0.5959 C.ar    1  UNL1       -0.0015
     13 C          -4.3170   -0.1078   -0.6221 C.ar    1  UNL1        0.0308
     14 S          -5.1836   -1.2312   -1.6400 S.2     1  UNL1       -0.0923
     15 C          -6.7442   -0.6579   -1.1447 C.ar    1  UNL1        0.0192
     16 C          -6.5484    0.3369   -0.2614 C.ar    1  UNL1        0.1424
     17 O          -7.5121    1.0658    0.3640 O.2     1  UNL1       -0.4624
     18 C          -6.7125    1.9146    1.1090 C.ar    1  UNL1        0.0932
     19 C          -5.3378    1.7034    0.9412 C.ar    1  UNL1       -0.0150
     20 C          -5.2409    0.6406    0.0248 C.ar    1  UNL1        0.0349
     21 C          -2.1079   -0.2574    0.5693 C.ar    1  UNL1        0.0082
     22 C          -2.5576   -0.4747    1.8503 C.ar    1  UNL1        0.0100
     23 N          -1.4516   -0.5512    2.6675 N.ar    1  UNL1       -0.3659
     24 C          -0.3002   -0.3946    1.9274 C.ar    1  UNL1        0.0100
     25 C          -0.6719   -0.2359    0.6132 C.ar    1  UNL1        0.0083
     26 C           2.4163    0.9263   -0.9370 C.ar    1  UNL1        0.1501
     27 O           2.0504    2.1061   -1.5143 O.2     1  UNL1       -0.4617
     28 C           3.2975    2.6401   -1.7688 C.ar    1  UNL1        0.0932
     29 C           4.3621    1.8242   -1.3695 C.ar    1  UNL1       -0.0150
     30 C           3.7640    0.6757   -0.8096 C.ar    1  UNL1        0.0360
     31 H           7.4259   -3.6841    0.7896 H       1  UNL1        0.0623
     32 H           8.8188   -1.4465    0.7185 H       1  UNL1        0.0693
     33 H           4.8805   -3.2350    0.2763 H       1  UNL1        0.0629
     34 H          -0.0835    0.2754   -2.6295 H       1  UNL1        0.0624
     35 H          -2.5191    0.2331   -2.7043 H       1  UNL1        0.0624
     36 H          -7.6761   -1.0598   -1.5136 H       1  UNL1        0.0731
     37 H          -7.2680    2.6213    1.7117 H       1  UNL1        0.1030
     38 H          -4.5420    2.2550    1.4211 H       1  UNL1        0.0655
     39 H          -3.5504   -0.5833    2.2655 H       1  UNL1        0.0813
     40 H          -1.4801   -0.7009    3.6678 H       1  UNL1        0.1648
     41 H           0.6647   -0.4178    2.4150 H       1  UNL1        0.0813
     42 H           3.2692    3.6125   -2.2431 H       1  UNL1        0.1030
     43 H           5.4105    2.0568   -1.4862 H       1  UNL1        0.0655
@<TRIPOS>BOND
     1     1     2   ar
     2     2     3   ar
     3     3     4   ar
     4     4     5   ar
     5     4     6    1
     6     6     7   ar
     7     7     8   ar
     8     8     9    1
     9     9    10   ar
    10    10    11   ar
    11    11    12   ar
    12    12    13    1
    13    13    14   ar
    14    14    15   ar
    15    15    16   ar
    16    16    17   ar
    17    17    18   ar
    18    18    19   ar
    19    19    20   ar
    20    12    21   ar
    21    21    22   ar
    22    22    23   ar
    23    23    24   ar
    24    24    25   ar
    25     8    26   ar
    26    26    27   ar
    27    27    28   ar
    28    28    29   ar
    29    29    30   ar
    30     5     1   ar
    31    30     6   ar
    32    25     9   ar
    33    30    26   ar
    34    20    13   ar
    35    25    21   ar
    36    20    16   ar
    37     1    31    1
    38     2    32    1
    39     5    33    1
    40    10    34    1
    41    11    35    1
    42    15    36    1
    43    18    37    1
    44    19    38    1
    45    22    39    1
    46    23    40    1
    47    24    41    1
    48    28    42    1
    49    29    43    1
