@<TRIPOS>MOLECULE
*****
 40 45 0 0 0
SMALL
GASTEIGER

@<TRIPOS>ATOM
      1 C          -5.9304    3.7091   -0.4222 C.ar    1  UNL1       -0.0541
      2 C          -6.9761    2.8318   -0.5708 C.ar    1  UNL1       -0.0237
      3 S          -6.4488    1.2111   -0.5798 S.2     1  UNL1       -0.0961
      4 C          -4.7934    1.6459   -0.3833 C.ar    1  UNL1        0.0280
      5 C          -4.6808    3.0293   -0.3149 C.ar    1  UNL1       -0.0464
      6 C          -3.7207    0.6609   -0.3074 C.ar    1  UNL1        0.0539
      7 S          -2.0879    1.1785   -0.1104 S.2     1  UNL1       -0.0833
      8 C          -1.4113   -0.4107   -0.1018 C.ar    1  UNL1        0.0488
      9 C           0.0585   -0.5905    0.0494 C.ar    1  UNL1        0.0090
     10 C           0.6599   -1.8528    0.0633 C.ar    1  UNL1       -0.0500
     11 C           2.0460   -1.9990    0.2069 C.ar    1  UNL1       -0.0345
     12 C           2.8415   -0.8693    0.3382 C.ar    1  UNL1        0.0796
     13 N           2.3006    0.3735    0.3300 N.ar    1  UNL1       -0.2538
     14 C           0.9500    0.4762    0.1886 C.ar    1  UNL1        0.0365
     15 C           4.2976   -0.9164    0.4933 C.ar    1  UNL1        0.0613
     16 S           5.2402   -2.3803    0.5357 S.2     1  UNL1       -0.0924
     17 C           6.7529   -1.5482    0.7325 C.ar    1  UNL1       -0.0145
     18 C           6.4872   -0.2278    0.7573 C.ar    1  UNL1        0.0073
     19 C           7.1311    1.0285    0.8775 C.ar    1  UNL1       -0.0361
     20 C           6.1253    2.0173    0.8091 C.ar    1  UNL1        0.0028
     21 N           4.8637    1.4521    0.6502 N.ar    1  UNL1       -0.3597
     22 C           5.1615    0.1189    0.6284 C.ar    1  UNL1        0.0629
     23 C          -2.4380   -1.3295   -0.2497 C.ar    1  UNL1        0.1046
     24 N          -2.2387   -2.6818   -0.2829 N.ar    1  UNL1       -0.2508
     25 C          -3.4001   -3.3652   -0.4358 C.ar    1  UNL1        0.0464
     26 C          -4.6598   -2.7823   -0.5480 C.ar    1  UNL1        0.0464
     27 N          -4.8998   -1.4503   -0.5200 N.ar    1  UNL1       -0.2507
     28 C          -3.7546   -0.7203   -0.3670 C.ar    1  UNL1        0.1050
     29 H          -6.0512    4.7850   -0.3915 H       1  UNL1        0.0623
     30 H          -8.0272    3.0631   -0.6750 H       1  UNL1        0.0693
     31 H          -3.7413    3.5541   -0.1920 H       1  UNL1        0.0629
     32 H           0.0755   -2.7623   -0.0364 H       1  UNL1        0.0625
     33 H           2.4677   -2.9984    0.2120 H       1  UNL1        0.0639
     34 H           0.6144    1.5096    0.1941 H       1  UNL1        0.0836
     35 H           7.6893   -2.0806    0.8119 H       1  UNL1        0.0700
     36 H           8.1885    1.2212    0.9994 H       1  UNL1        0.0639
     37 H           6.2124    3.0947    0.8621 H       1  UNL1        0.0807
     38 H           3.9339    1.8545    0.5662 H       1  UNL1        0.1654
     39 H          -3.2949   -4.4460   -0.4682 H       1  UNL1        0.0845
     40 H          -5.5427   -3.4037   -0.6683 H       1  UNL1        0.0845
@<TRIPOS>BOND
     1     1     2   ar
     2     2     3   ar
     3     3     4   ar
     4     4     5   ar
     5     4     6    1
     6     6     7   ar
     7     7     8   ar
     8     8     9    1
     9     9    10   ar
    10    10    11   ar
    11    11    12   ar
    12    12    13   ar
    13    13    14   ar
    14    12    15    1
    15    15    16   ar
    16    16    17   ar
    17    17    18   ar
    18    18    19   ar
    19    19    20   ar
    20    20    21   ar
    21    21    22   ar
    22     8    23   ar
    23    23    24   ar
    24    24    25   ar
    25    25    26   ar
    26    26    27   ar
    27    27    28   ar
    28     5     1   ar
    29    28     6   ar
    30    14     9   ar
    31    22    15   ar
    32    28    23   ar
    33    22    18   ar
    34     1    29    1
    35     2    30    1
    36     5    31    1
    37    10    32    1
    38    11    33    1
    39    14    34    1
    40    17    35    1
    41    19    36    1
    42    20    37    1
    43    21    38    1
    44    25    39    1
    45    26    40    1
