@<TRIPOS>MOLECULE
*****
 31 35 0 0 0
SMALL
GASTEIGER

@<TRIPOS>ATOM
      1 C          -6.1608   -1.4609    1.0320 C.ar    1  UNL1       -0.0541
      2 C          -6.6814   -0.5552    0.1399 C.ar    1  UNL1       -0.0237
      3 S          -5.4597    0.3434   -0.6401 S.2     1  UNL1       -0.0960
      4 C          -4.1970   -0.4654    0.2048 C.ar    1  UNL1        0.0295
      5 C          -4.7359   -1.4087    1.0685 C.ar    1  UNL1       -0.0463
      6 C          -2.7991   -0.1650    0.0038 C.ar    1  UNL1        0.0693
      7 S          -1.5162   -0.9747    0.8510 S.2     1  UNL1       -0.0828
      8 C          -0.2363   -0.0763    0.0745 C.ar    1  UNL1        0.0389
      9 C           1.1517   -0.3142    0.3846 C.ar    1  UNL1        0.0467
     10 C           1.6964   -1.2207    1.2791 C.ar    1  UNL1        0.0438
     11 N           3.0755   -1.2374    1.3783 N.ar    1  UNL1       -0.2446
     12 C           3.5932   -0.3426    0.5594 C.ar    1  UNL1        0.1337
     13 S           2.4416    0.5471   -0.3557 S.2     1  UNL1       -0.0647
     14 C           5.0138   -0.1089    0.4232 C.ar    1  UNL1        0.1331
     15 N           5.5312    0.7883   -0.3981 N.ar    1  UNL1       -0.2452
     16 C           6.9090    0.7777   -0.3046 C.ar    1  UNL1        0.0355
     17 C           7.4375   -0.1276    0.5876 C.ar    1  UNL1       -0.0042
     18 S           6.1714   -1.0008    1.3408 S.2     1  UNL1       -0.0736
     19 C          -0.8375    0.7871   -0.7823 C.ar    1  UNL1        0.0361
     20 C          -0.5174    1.7925   -1.7183 C.ar    1  UNL1       -0.0150
     21 C          -1.7442    2.2387   -2.2166 C.ar    1  UNL1        0.0932
     22 O          -2.8373    1.5988   -1.6745 O.2     1  UNL1       -0.4617
     23 C          -2.2155    0.7370   -0.8180 C.ar    1  UNL1        0.1506
     24 H          -6.7684   -2.1289    1.6300 H       1  UNL1        0.0623
     25 H          -7.7219   -0.3760   -0.0934 H       1  UNL1        0.0693
     26 H          -4.1405   -2.0466    1.7106 H       1  UNL1        0.0629
     27 H           1.1328   -1.9087    1.8987 H       1  UNL1        0.0841
     28 H           7.4866    1.4594   -0.9175 H       1  UNL1        0.0835
     29 H           8.4748   -0.3127    0.8263 H       1  UNL1        0.0709
     30 H           0.4511    2.1675   -2.0160 H       1  UNL1        0.0655
     31 H          -1.9971    2.9939   -2.9496 H       1  UNL1        0.1030
@<TRIPOS>BOND
     1     1     2   ar
     2     2     3   ar
     3     3     4   ar
     4     4     5   ar
     5     4     6    1
     6     6     7   ar
     7     7     8   ar
     8     8     9    1
     9     9    10   ar
    10    10    11   ar
    11    11    12   ar
    12    12    13   ar
    13    12    14    1
    14    14    15   ar
    15    15    16   ar
    16    16    17   ar
    17    17    18   ar
    18     8    19   ar
    19    19    20   ar
    20    20    21   ar
    21    21    22   ar
    22    22    23   ar
    23     5     1   ar
    24    23     6   ar
    25    13     9   ar
    26    18    14   ar
    27    23    19   ar
    28     1    24    1
    29     2    25    1
    30     5    26    1
    31    10    27    1
    32    16    28    1
    33    17    29    1
    34    20    30    1
    35    21    31    1
