@<TRIPOS>MOLECULE
*****
 36 41 0 0 0
SMALL
GASTEIGER

@<TRIPOS>ATOM
      1 C           7.2878   -0.3901    0.0658 C.ar    1  UNL1       -0.0541
      2 C           7.1294   -1.7454   -0.0881 C.ar    1  UNL1       -0.0237
      3 S           5.4851   -2.1888   -0.1623 S.2     1  UNL1       -0.0961
      4 C           4.9396   -0.5583    0.0117 C.ar    1  UNL1        0.0280
      5 C           6.0336    0.2873    0.1227 C.ar    1  UNL1       -0.0464
      6 C           3.5269   -0.1959    0.0310 C.ar    1  UNL1        0.0540
      7 S           2.2805   -1.3803   -0.1199 S.2     1  UNL1       -0.0813
      8 C           0.9873   -0.2458   -0.0126 C.ar    1  UNL1        0.0723
      9 C          -0.3810   -0.7145   -0.0855 C.ar    1  UNL1        0.1175
     10 N          -0.6699   -1.9931   -0.2326 N.ar    1  UNL1       -0.2461
     11 C          -2.0384   -2.1716   -0.2730 C.ar    1  UNL1        0.0448
     12 C          -2.8149   -1.0317   -0.1574 C.ar    1  UNL1        0.0597
     13 S          -1.7594    0.3075    0.0079 S.2     1  UNL1       -0.0650
     14 C          -4.2697   -0.9407   -0.1691 C.ar    1  UNL1        0.1071
     15 N          -4.9434   -2.1337   -0.3125 N.ar    1  UNL1       -0.2521
     16 C          -6.3104   -2.1909   -0.3394 C.ar    1  UNL1        0.0305
     17 C          -7.1958   -1.1271   -0.2339 C.ar    1  UNL1       -0.0153
     18 C          -6.5595    0.1187   -0.0852 C.ar    1  UNL1        0.1034
     19 N          -7.1950    1.2948    0.0365 N.ar    1  UNL1       -0.1907
     20 S          -6.0189    2.4534    0.1836 S.2     1  UNL1        0.1165
     21 N          -4.6563    1.5181    0.0996 N.ar    1  UNL1       -0.1886
     22 C          -5.0520    0.2402   -0.0490 C.ar    1  UNL1        0.1263
     23 C           1.4979    1.0266    0.1372 C.ar    1  UNL1        0.1065
     24 N           0.7265    2.1489    0.2509 N.ar    1  UNL1       -0.2507
     25 C           1.4754    3.2702    0.3874 C.ar    1  UNL1        0.0464
     26 C           2.8683    3.2997    0.4116 C.ar    1  UNL1        0.0464
     27 N           3.6706    2.2117    0.3021 N.ar    1  UNL1       -0.2507
     28 C           2.9512    1.0560    0.1622 C.ar    1  UNL1        0.1051
     29 H           8.2526    0.0968    0.1347 H       1  UNL1        0.0623
     30 H           7.9010   -2.4994   -0.1608 H       1  UNL1        0.0693
     31 H           5.9549    1.3606    0.2414 H       1  UNL1        0.0629
     32 H          -2.4313   -3.1754   -0.3909 H       1  UNL1        0.0842
     33 H          -6.7016   -3.2016   -0.4581 H       1  UNL1        0.0830
     34 H          -8.2698   -1.2417   -0.2628 H       1  UNL1        0.0655
     35 H           0.9068    4.1911    0.4817 H       1  UNL1        0.0845
     36 H           3.3919    4.2448    0.5250 H       1  UNL1        0.0845
@<TRIPOS>BOND
     1     1     2   ar
     2     2     3   ar
     3     3     4   ar
     4     4     5   ar
     5     4     6    1
     6     6     7   ar
     7     7     8   ar
     8     8     9    1
     9     9    10   ar
    10    10    11   ar
    11    11    12   ar
    12    12    13   ar
    13    12    14    1
    14    14    15   ar
    15    15    16   ar
    16    16    17   ar
    17    17    18   ar
    18    18    19   ar
    19    19    20   ar
    20    20    21   ar
    21    21    22   ar
    22     8    23   ar
    23    23    24   ar
    24    24    25   ar
    25    25    26   ar
    26    26    27   ar
    27    27    28   ar
    28     5     1   ar
    29    28     6   ar
    30    13     9   ar
    31    22    14   ar
    32    28    23   ar
    33    22    18   ar
    34     1    29    1
    35     2    30    1
    36     5    31    1
    37    11    32    1
    38    16    33    1
    39    17    34    1
    40    25    35    1
    41    26    36    1
