@<TRIPOS>MOLECULE
*****
 30 33 0 0 0
SMALL
GASTEIGER

@<TRIPOS>ATOM
      1 C           5.2999   -1.4159    0.8234 C.ar    1  UNL1       -0.0541
      2 C           5.1104   -2.7307    0.4684 C.ar    1  UNL1       -0.0237
      3 S           3.4770   -3.0639    0.0995 S.2     1  UNL1       -0.0961
      4 C           2.9909   -1.4447    0.4156 C.ar    1  UNL1        0.0259
      5 C           1.6232   -0.9908    0.2745 C.ar    1  UNL1        0.0271
      6 C           1.2080    0.3029    0.0193 C.ar    1  UNL1       -0.0376
      7 C          -0.2190    0.4510   -0.0552 C.ar    1  UNL1        0.0046
      8 C          -0.9207    1.8514   -0.3551 C.ar    1  UNL1        0.0204
      9 C          -0.2171    3.0240   -0.5632 C.ar    1  UNL1       -0.0469
     10 C          -1.0687    4.1417   -0.8127 C.ar    1  UNL1       -0.0541
     11 C          -2.3970    3.7877   -0.7881 C.ar    1  UNL1       -0.0237
     12 S          -2.6039    2.1244   -0.4682 S.2     1  UNL1       -0.0966
     13 C          -0.8542   -0.7596    0.1658 C.ar    1  UNL1        0.0347
     14 C          -2.2516   -1.0907    0.1871 C.ar    1  UNL1        0.0265
     15 C          -3.0356   -1.4599   -0.8880 C.ar    1  UNL1       -0.0464
     16 C          -4.3821   -1.7325   -0.5053 C.ar    1  UNL1       -0.0541
     17 C          -4.5756   -1.5705    0.8486 C.ar    1  UNL1       -0.0237
     18 S          -3.1404   -1.0971    1.6517 S.2     1  UNL1       -0.0961
     19 S           0.2734   -2.0276    0.4319 S.2     1  UNL1       -0.0866
     20 C           4.0811   -0.6762    0.7900 C.ar    1  UNL1       -0.0464
     21 H           6.2638   -1.0037    1.0957 H       1  UNL1        0.0623
     22 H           5.8522   -3.5152    0.4075 H       1  UNL1        0.0693
     23 H           1.9090    1.1150   -0.1211 H       1  UNL1        0.0636
     24 H           0.8617    3.1002   -0.5413 H       1  UNL1        0.0629
     25 H          -0.7224    5.1508   -0.9994 H       1  UNL1        0.0623
     26 H          -3.2574    4.4244   -0.9422 H       1  UNL1        0.0693
     27 H          -2.6625   -1.5270   -1.9028 H       1  UNL1        0.0629
     28 H          -5.1668   -2.0326   -1.1886 H       1  UNL1        0.0623
     29 H          -5.4895   -1.7097    1.4094 H       1  UNL1        0.0693
     30 H           4.0140    0.3749    1.0429 H       1  UNL1        0.0629
@<TRIPOS>BOND
     1     1     2   ar
     2     2     3   ar
     3     3     4   ar
     4     4     5    1
     5     5     6   ar
     6     6     7   ar
     7     7     8    1
     8     8     9   ar
     9     9    10   ar
    10    10    11   ar
    11    11    12   ar
    12     7    13   ar
    13    13    14    1
    14    14    15   ar
    15    15    16   ar
    16    16    17   ar
    17    17    18   ar
    18    13    19   ar
    19     4    20   ar
    20    20     1   ar
    21    19     5   ar
    22    12     8   ar
    23    18    14   ar
    24     1    21    1
    25     2    22    1
    26     6    23    1
    27     9    24    1
    28    10    25    1
    29    11    26    1
    30    15    27    1
    31    16    28    1
    32    17    29    1
    33    20    30    1
