@<TRIPOS>MOLECULE
*****
 79 89 0 0 0
SMALL
GASTEIGER

@<TRIPOS>ATOM
      1 C          -7.5652   -6.8135    1.1512 C.ar    1  UNL1       -0.0541
      2 C          -7.9739   -5.8167    2.0061 C.ar    1  UNL1       -0.0237
      3 S          -7.1032   -4.3686    1.7613 S.2     1  UNL1       -0.0961
      4 C          -6.1516   -5.0575    0.5030 C.ar    1  UNL1        0.0259
      5 C          -5.1284   -4.3194   -0.2103 C.ar    1  UNL1        0.0265
      6 C          -4.6054   -4.6301   -1.4524 C.ar    1  UNL1       -0.0458
      7 C          -3.5875   -3.7226   -1.8695 C.ar    1  UNL1       -0.0458
      8 C          -3.3456   -2.7287   -0.9407 C.ar    1  UNL1        0.0265
      9 C          -2.3574   -1.6781   -1.0434 C.ar    1  UNL1        0.0265
     10 C          -1.1621   -1.7361   -1.7355 C.ar    1  UNL1       -0.0458
     11 C          -0.4131   -0.5251   -1.6434 C.ar    1  UNL1       -0.0463
     12 C          -1.0422    0.4307   -0.8736 C.ar    1  UNL1        0.0217
     13 C          -0.4441    1.8894   -0.5864 C.ar    1  UNL1        0.0128
     14 C          -1.2591    3.0093   -0.4758 C.ar    1  UNL1        0.0353
     15 C          -2.6897    3.1298   -0.5588 C.ar    1  UNL1        0.0271
     16 C          -3.5769    3.3057    0.4804 C.ar    1  UNL1       -0.0458
     17 C          -4.9285    3.3693    0.0256 C.ar    1  UNL1       -0.0458
     18 C          -5.0411    3.2605   -1.3502 C.ar    1  UNL1        0.0265
     19 C          -6.2699    3.2545   -2.1176 C.ar    1  UNL1        0.0259
     20 C          -7.5354    2.9424   -1.6464 C.ar    1  UNL1       -0.0464
     21 C          -8.5438    3.0315   -2.6504 C.ar    1  UNL1       -0.0541
     22 C          -8.0233    3.4161   -3.8634 C.ar    1  UNL1       -0.0237
     23 S          -6.3364    3.6653   -3.7870 S.2     1  UNL1       -0.0961
     24 S          -3.4877    3.1047   -2.0709 S.2     1  UNL1       -0.0872
     25 S          -0.3533    4.4538   -0.3860 S.2     1  UNL1       -0.0859
     26 C           1.1392    3.6235   -0.4579 C.ar    1  UNL1        0.0353
     27 C           2.3369    4.4118   -0.3311 C.ar    1  UNL1        0.0271
     28 C           2.8997    5.2279   -1.2877 C.ar    1  UNL1       -0.0458
     29 C           4.0893    5.8619   -0.8186 C.ar    1  UNL1       -0.0458
     30 C           4.4014    5.5305    0.4889 C.ar    1  UNL1        0.0265
     31 C           5.5540    5.9806    1.2439 C.ar    1  UNL1        0.0259
     32 C           6.7130    6.5376    0.7264 C.ar    1  UNL1       -0.0464
     33 C           7.6679    6.8773    1.7286 C.ar    1  UNL1       -0.0541
     34 C           7.2108    6.5800    2.9885 C.ar    1  UNL1       -0.0237
     35 S           5.6471    5.8971    2.9587 S.2     1  UNL1       -0.0961
     36 S           3.2121    4.4705    1.1358 S.2     1  UNL1       -0.0872
     37 C           0.9653    2.2450   -0.5134 C.ar    1  UNL1        0.0128
     38 C           2.2033    1.2295   -0.3916 C.ar    1  UNL1        0.0217
     39 C           3.4915    1.4884   -0.8100 C.ar    1  UNL1       -0.0463
     40 C           4.3855    0.4098   -0.5390 C.ar    1  UNL1       -0.0458
     41 C           3.7697   -0.6496    0.1014 C.ar    1  UNL1        0.0265
     42 C           4.3884   -1.8998    0.4879 C.ar    1  UNL1        0.0265
     43 C           5.5332   -2.4507   -0.0558 C.ar    1  UNL1       -0.0458
     44 C           5.8847   -3.6960    0.5444 C.ar    1  UNL1       -0.0458
     45 C           5.0131   -4.0815    1.5479 C.ar    1  UNL1        0.0265
     46 C           5.0933   -5.2906    2.3480 C.ar    1  UNL1        0.0259
     47 C           6.0957   -6.2481    2.3034 C.ar    1  UNL1       -0.0464
     48 C           5.8818   -7.3256    3.2131 C.ar    1  UNL1       -0.0541
     49 C           4.7224   -7.1671    3.9339 C.ar    1  UNL1       -0.0237
     50 S           3.9022   -5.7325    3.5118 S.2     1  UNL1       -0.0961
     51 S           3.7774   -2.9042    1.7362 S.2     1  UNL1       -0.0872
     52 S           2.1148   -0.2986    0.3724 S.2     1  UNL1       -0.0877
     53 S          -2.5604   -0.1349   -0.3292 S.2     1  UNL1       -0.0877
     54 S          -4.3718   -2.9141    0.4199 S.2     1  UNL1       -0.0872
     55 C          -6.5205   -6.3754    0.2843 C.ar    1  UNL1       -0.0464
     56 H          -7.9921   -7.8090    1.1470 H       1  UNL1        0.0623
     57 H          -8.7436   -5.8670    2.7649 H       1  UNL1        0.0693
     58 H          -4.9343   -5.4718   -2.0484 H       1  UNL1        0.0629
     59 H          -3.0631   -3.8016   -2.8141 H       1  UNL1        0.0629
     60 H          -0.8268   -2.6081   -2.2844 H       1  UNL1        0.0629
     61 H           0.5325   -0.3715   -2.1482 H       1  UNL1        0.0629
     62 H          -3.2788    3.3657    1.5202 H       1  UNL1        0.0629
     63 H          -5.7769    3.4892    0.6890 H       1  UNL1        0.0629
     64 H          -7.7358    2.6465   -0.6236 H       1  UNL1        0.0629
     65 H          -9.5943    2.8206   -2.4905 H       1  UNL1        0.0623
     66 H          -8.5508    3.5633   -4.7944 H       1  UNL1        0.0693
     67 H           2.4861    5.3616   -2.2808 H       1  UNL1        0.0629
     68 H           4.6824    6.5365   -1.4256 H       1  UNL1        0.0629
     69 H           6.8839    6.6920   -0.3320 H       1  UNL1        0.0629
     70 H           8.6384    7.3148    1.5326 H       1  UNL1        0.0623
     71 H           7.7194    6.7306    3.9293 H       1  UNL1        0.0693
     72 H           3.7997    2.3862   -1.3274 H       1  UNL1        0.0629
     73 H           5.4358    0.4239   -0.8055 H       1  UNL1        0.0629
     74 H           6.0955   -1.9963   -0.8628 H       1  UNL1        0.0629
     75 H           6.7454   -4.2770    0.2395 H       1  UNL1        0.0629
     76 H           6.9563   -6.1875    1.6475 H       1  UNL1        0.0629
     77 H           6.5470   -8.1717    3.3317 H       1  UNL1        0.0623
     78 H           4.3146   -7.8263    4.6882 H       1  UNL1        0.0693
     79 H          -6.0563   -7.0127   -0.4592 H       1  UNL1        0.0629
@<TRIPOS>BOND
     1     1     2   ar
     2     2     3   ar
     3     3     4   ar
     4     4     5    1
     5     5     6   ar
     6     6     7   ar
     7     7     8   ar
     8     8     9    1
     9     9    10   ar
    10    10    11   ar
    11    11    12   ar
    12    12    13    1
    13    13    14   ar
    14    14    15    1
    15    15    16   ar
    16    16    17   ar
    17    17    18   ar
    18    18    19    1
    19    19    20   ar
    20    20    21   ar
    21    21    22   ar
    22    22    23   ar
    23    18    24   ar
    24    14    25   ar
    25    25    26   ar
    26    26    27    1
    27    27    28   ar
    28    28    29   ar
    29    29    30   ar
    30    30    31    1
    31    31    32   ar
    32    32    33   ar
    33    33    34   ar
    34    34    35   ar
    35    30    36   ar
    36    26    37   ar
    37    37    38    1
    38    38    39   ar
    39    39    40   ar
    40    40    41   ar
    41    41    42    1
    42    42    43   ar
    43    43    44   ar
    44    44    45   ar
    45    45    46    1
    46    46    47   ar
    47    47    48   ar
    48    48    49   ar
    49    49    50   ar
    50    45    51   ar
    51    41    52   ar
    52    12    53   ar
    53     8    54   ar
    54     4    55   ar
    55    55     1   ar
    56    54     5   ar
    57    53     9   ar
    58    37    13   ar
    59    52    38   ar
    60    24    15   ar
    61    36    27   ar
    62    51    42   ar
    63    23    19   ar
    64    35    31   ar
    65    50    46   ar
    66     1    56    1
    67     2    57    1
    68     6    58    1
    69     7    59    1
    70    10    60    1
    71    11    61    1
    72    16    62    1
    73    17    63    1
    74    20    64    1
    75    21    65    1
    76    22    66    1
    77    28    67    1
    78    29    68    1
    79    32    69    1
    80    33    70    1
    81    34    71    1
    82    39    72    1
    83    40    73    1
    84    43    74    1
    85    44    75    1
    86    47    76    1
    87    48    77    1
    88    49    78    1
    89    55    79    1
