@<TRIPOS>MOLECULE
*****
 28 32 0 0 0
SMALL
GASTEIGER

@<TRIPOS>ATOM
      1 C           5.9459   -0.6502   -0.2427 C.ar    1  UNL1        0.0355
      2 C           5.9978    0.7239   -0.1658 C.ar    1  UNL1       -0.0042
      3 S           4.4076    1.3547   -0.0721 S.2     1  UNL1       -0.0742
      4 C           3.7774   -0.2458   -0.1409 C.ar    1  UNL1        0.1244
      5 N           4.6799   -1.2008   -0.2284 N.ar    1  UNL1       -0.2459
      6 C           2.3686   -0.5375   -0.1066 C.ar    1  UNL1        0.0743
      7 C           1.7591   -1.8053   -0.1572 C.ar    1  UNL1       -0.0103
      8 C           0.3672   -1.5593   -0.0926 C.ar    1  UNL1        0.0691
      9 N          -0.9162   -2.0529   -0.0745 N.ar    1  UNL1       -0.3487
     10 C          -1.8078   -1.0147    0.0174 C.ar    1  UNL1        0.1139
     11 C          -3.1202   -0.5346    0.0924 C.ar    1  UNL1        0.1328
     12 N          -4.2843   -1.2145    0.0956 N.ar    1  UNL1       -0.2497
     13 C          -5.3633   -0.3967    0.1816 C.ar    1  UNL1        0.0286
     14 C          -5.3313    0.9987    0.2604 C.ar    1  UNL1       -0.0401
     15 C          -4.1058    1.6735    0.2547 C.ar    1  UNL1       -0.0157
     16 C          -2.9843    0.8585    0.1674 C.ar    1  UNL1        0.1560
     17 O          -1.6656    1.2671    0.1431 O.2     1  UNL1       -0.4495
     18 C          -1.0408    0.0869    0.0528 C.ar    1  UNL1        0.1791
     19 C           0.2446   -0.2223   -0.0115 C.ar    1  UNL1        0.1083
     20 N           1.3947    0.4512   -0.0146 N.ar    1  UNL1       -0.3484
     21 H           6.8059   -1.3050   -0.3114 H       1  UNL1        0.0835
     22 H           6.8662    1.3662   -0.1605 H       1  UNL1        0.0709
     23 H           2.2767   -2.7528   -0.2302 H       1  UNL1        0.0660
     24 H          -1.1704   -3.0308   -0.1214 H       1  UNL1        0.1661
     25 H          -6.3192   -0.9171    0.1864 H       1  UNL1        0.0830
     26 H          -6.2605    1.5571    0.3260 H       1  UNL1        0.0634
     27 H          -4.0284    2.7510    0.3137 H       1  UNL1        0.0655
     28 H           1.5067    1.4559    0.0390 H       1  UNL1        0.1661
@<TRIPOS>BOND
     1     1     2   ar
     2     2     3   ar
     3     3     4   ar
     4     4     5   ar
     5     4     6    1
     6     6     7   ar
     7     7     8   ar
     8     8     9   ar
     9     9    10   ar
    10    10    11   ar
    11    11    12   ar
    12    12    13   ar
    13    13    14   ar
    14    14    15   ar
    15    15    16   ar
    16    16    17   ar
    17    17    18   ar
    18    18    19   ar
    19    19    20   ar
    20     5     1   ar
    21    20     6   ar
    22    19     8   ar
    23    18    10   ar
    24    16    11   ar
    25     1    21    1
    26     2    22    1
    27     7    23    1
    28     9    24    1
    29    13    25    1
    30    14    26    1
    31    15    27    1
    32    20    28    1
