@<TRIPOS>MOLECULE
*****
 29 33 0 0 0
SMALL
GASTEIGER

@<TRIPOS>ATOM
      1 C           6.0795   -1.4705    0.7284 C.ar    1  UNL1        0.0355
      2 C           6.6563   -0.6153   -0.1824 C.ar    1  UNL1       -0.0042
      3 S           5.4389    0.3109   -0.9507 S.2     1  UNL1       -0.0752
      4 C           4.2324   -0.4950   -0.0139 C.ar    1  UNL1        0.1148
      5 N           4.7046   -1.4001    0.8219 N.ar    1  UNL1       -0.2468
      6 C           2.8184   -0.1979   -0.1391 C.ar    1  UNL1        0.0469
      7 C           2.2164    0.7277   -0.9798 C.ar    1  UNL1       -0.0209
      8 C           0.8070    0.7223   -0.8076 C.ar    1  UNL1        0.0553
      9 N          -0.2780    1.3822   -1.3294 N.ar    1  UNL1       -0.3537
     10 C          -1.4162    0.9059   -0.7252 C.ar    1  UNL1        0.0487
     11 C          -2.7515    1.2612   -0.9170 C.ar    1  UNL1       -0.0286
     12 C          -3.7570    0.6269   -0.1728 C.ar    1  UNL1        0.0016
     13 C          -5.1734    0.7385   -0.1150 C.ar    1  UNL1       -0.0366
     14 C          -5.6274   -0.1600    0.8242 C.ar    1  UNL1        0.0027
     15 N          -4.5389   -0.8137    1.3395 N.ar    1  UNL1       -0.3606
     16 C          -3.3867   -0.3517    0.7477 C.ar    1  UNL1        0.0472
     17 C          -2.0549   -0.7115    0.9445 C.ar    1  UNL1       -0.0276
     18 C          -1.0556   -0.0748    0.1986 C.ar    1  UNL1        0.0160
     19 C           0.3669   -0.1680    0.1219 C.ar    1  UNL1        0.0453
     20 S           1.6685   -1.0513    0.8381 S.2     1  UNL1       -0.0840
     21 H           6.6167   -2.1716    1.3555 H       1  UNL1        0.0835
     22 H           7.7020   -0.4949   -0.4249 H       1  UNL1        0.0709
     23 H           2.7441    1.3688   -1.6742 H       1  UNL1        0.0650
     24 H          -0.2161    2.0976   -2.0416 H       1  UNL1        0.1659
     25 H          -3.0214    2.0265   -1.6393 H       1  UNL1        0.0645
     26 H          -5.7923    1.4061   -0.6996 H       1  UNL1        0.0638
     27 H          -6.6264   -0.3899    1.1691 H       1  UNL1        0.0807
     28 H          -4.5701   -1.5313    2.0503 H       1  UNL1        0.1653
     29 H          -1.7860   -1.4770    1.6670 H       1  UNL1        0.0645
@<TRIPOS>BOND
     1     1     2   ar
     2     2     3   ar
     3     3     4   ar
     4     4     5   ar
     5     4     6    1
     6     6     7   ar
     7     7     8   ar
     8     8     9   ar
     9     9    10   ar
    10    10    11   ar
    11    11    12   ar
    12    12    13   ar
    13    13    14   ar
    14    14    15   ar
    15    15    16   ar
    16    16    17   ar
    17    17    18   ar
    18    18    19   ar
    19    19    20   ar
    20     5     1   ar
    21    20     6   ar
    22    19     8   ar
    23    18    10   ar
    24    16    12   ar
    25     1    21    1
    26     2    22    1
    27     7    23    1
    28     9    24    1
    29    11    25    1
    30    13    26    1
    31    14    27    1
    32    15    28    1
    33    17    29    1
