@<TRIPOS>MOLECULE
*****
 35 40 0 0 0
SMALL
GASTEIGER

@<TRIPOS>ATOM
      1 C           6.5867   -1.2503   -0.2874 C.ar    1  UNL1        0.0354
      2 C           7.1228    0.0059   -0.1375 C.ar    1  UNL1       -0.0042
      3 S           5.8634    1.1433    0.0556 S.2     1  UNL1       -0.0756
      4 C           4.6843   -0.1093   -0.0728 C.ar    1  UNL1        0.1104
      5 N           5.2088   -1.3132   -0.2506 N.ar    1  UNL1       -0.2473
      6 C           3.2297    0.1087    0.0040 C.ar    1  UNL1        0.0372
      7 C           2.3557   -1.0056   -0.1163 C.ar    1  UNL1       -0.0259
      8 C           0.9639   -0.8377   -0.0482 C.ar    1  UNL1        0.0503
      9 N          -0.0659   -1.7489   -0.1363 N.ar    1  UNL1       -0.3540
     10 C          -1.2927   -1.1219   -0.0123 C.ar    1  UNL1        0.0481
     11 C          -2.5830   -1.6674   -0.0429 C.ar    1  UNL1       -0.0300
     12 C          -3.6809   -0.8023    0.1087 C.ar    1  UNL1       -0.0159
     13 C          -4.9935   -1.3004    0.0851 C.ar    1  UNL1       -0.0540
     14 C          -6.0878   -0.4469    0.2351 C.ar    1  UNL1       -0.0612
     15 C          -5.8842    0.9175    0.4108 C.ar    1  UNL1       -0.0612
     16 C          -4.5862    1.4291    0.4366 C.ar    1  UNL1       -0.0540
     17 C          -3.4749    0.5840    0.2872 C.ar    1  UNL1       -0.0172
     18 C          -2.1667    1.1025    0.3137 C.ar    1  UNL1       -0.0442
     19 C          -1.0590    0.2445    0.1627 C.ar    1  UNL1        0.0101
     20 C           0.3403    0.3764    0.1345 C.ar    1  UNL1        0.0356
     21 C           1.1496    1.5467    0.2644 C.ar    1  UNL1        0.1102
     22 N           0.6309    2.7524    0.4426 N.ar    1  UNL1       -0.1901
     23 S           1.9835    3.7256    0.5284 S.2     1  UNL1        0.1165
     24 N           3.1873    2.5883    0.3369 N.ar    1  UNL1       -0.1901
     25 C           2.6041    1.3773    0.1941 C.ar    1  UNL1        0.1103
     26 H           7.1562   -2.1608   -0.4276 H       1  UNL1        0.0835
     27 H           8.1620    0.3005   -0.1323 H       1  UNL1        0.0709
     28 H           2.7746   -2.0010   -0.2631 H       1  UNL1        0.0646
     29 H           0.0545   -2.7425   -0.2730 H       1  UNL1        0.1659
     30 H          -2.7287   -2.7347   -0.1808 H       1  UNL1        0.0644
     31 H          -5.1754   -2.3641   -0.0511 H       1  UNL1        0.0624
     32 H          -7.0973   -0.8487    0.2145 H       1  UNL1        0.0618
     33 H          -6.7333    1.5854    0.5279 H       1  UNL1        0.0618
     34 H          -4.4462    2.4992    0.5751 H       1  UNL1        0.0624
     35 H          -2.0025    2.1683    0.4508 H       1  UNL1        0.0630
@<TRIPOS>BOND
     1     1     2   ar
     2     2     3   ar
     3     3     4   ar
     4     4     5   ar
     5     4     6    1
     6     6     7   ar
     7     7     8   ar
     8     8     9   ar
     9     9    10   ar
    10    10    11   ar
    11    11    12   ar
    12    12    13   ar
    13    13    14   ar
    14    14    15   ar
    15    15    16   ar
    16    16    17   ar
    17    17    18   ar
    18    18    19   ar
    19    19    20   ar
    20    20    21   ar
    21    21    22   ar
    22    22    23   ar
    23    23    24   ar
    24    24    25   ar
    25     5     1   ar
    26    25     6   ar
    27    20     8   ar
    28    25    21   ar
    29    19    10   ar
    30    17    12   ar
    31     1    26    1
    32     2    27    1
    33     7    28    1
    34     9    29    1
    35    11    30    1
    36    13    31    1
    37    14    32    1
    38    15    33    1
    39    16    34    1
    40    18    35    1
