@<TRIPOS>MOLECULE
*****
 49 56 0 0 0
SMALL
GASTEIGER

@<TRIPOS>ATOM
      1 C           7.8116    1.1568    0.0384 C.ar    1  UNL1        0.0355
      2 C           8.3002   -0.1228   -0.0899 C.ar    1  UNL1       -0.0042
      3 S           6.9991   -1.2244   -0.2355 S.2     1  UNL1       -0.0742
      4 C           5.8741    0.0834   -0.1162 C.ar    1  UNL1        0.1264
      5 N           6.4363    1.2746    0.0230 N.ar    1  UNL1       -0.2458
      6 C           4.4186   -0.1541   -0.1710 C.ar    1  UNL1        0.0965
      7 C           3.5284    0.9006   -0.0688 C.ar    1  UNL1       -0.0253
      8 C           2.1440    0.6226   -0.1279 C.ar    1  UNL1       -0.0046
      9 C           1.1053    1.5678   -0.0415 C.ar    1  UNL1        0.0078
     10 C           1.2683    2.9334    0.0050 C.ar    1  UNL1        0.0100
     11 N           0.0154    3.4923   -0.0425 N.ar    1  UNL1       -0.3659
     12 C          -0.9327    2.4998   -0.1185 C.ar    1  UNL1        0.0100
     13 C          -0.2971    1.2801   -0.0154 C.ar    1  UNL1        0.0083
     14 C          -0.9158   -0.0036   -0.0783 C.ar    1  UNL1        0.0008
     15 C           0.1589   -0.9503   -0.4272 C.ar    1  UNL1        0.0017
     16 C          -0.4748   -2.1219   -0.9323 C.ar    1  UNL1        0.0083
     17 C           0.1224   -3.1728   -1.5961 C.ar    1  UNL1        0.0100
     18 N          -0.8585   -4.0627   -1.9712 N.ar    1  UNL1       -0.3659
     19 C          -2.0891   -3.5696   -1.6230 C.ar    1  UNL1        0.0100
     20 C          -1.8865   -2.3560   -1.0051 C.ar    1  UNL1        0.0077
     21 C          -2.8990   -1.5009   -0.5199 C.ar    1  UNL1       -0.0075
     22 C          -4.2780   -1.7834   -0.6161 C.ar    1  UNL1       -0.0528
     23 C          -5.2010   -0.9216   -0.0495 C.ar    1  UNL1       -0.0534
     24 C          -4.7686    0.1627    0.7100 C.ar    1  UNL1       -0.0173
     25 C          -5.7282    0.9354    1.3869 C.ar    1  UNL1       -0.0540
     26 C          -5.3485    1.9472    2.2621 C.ar    1  UNL1       -0.0612
     27 C          -4.0025    2.1735    2.4906 C.ar    1  UNL1       -0.0611
     28 C          -3.0442    1.4222    1.8016 C.ar    1  UNL1       -0.0534
     29 C          -3.3768    0.4423    0.8347 C.ar    1  UNL1       -0.0096
     30 C          -2.3899   -0.3159    0.0814 C.ar    1  UNL1       -0.0012
     31 C           1.6322   -0.6838   -0.3244 C.ar    1  UNL1        0.0093
     32 C           2.6502   -1.6492   -0.3704 C.ar    1  UNL1        0.0367
     33 N           3.9945   -1.4309   -0.3102 N.ar    1  UNL1       -0.2523
     34 H           8.4181    2.0476    0.1469 H       1  UNL1        0.0835
     35 H           9.3280   -0.4543   -0.1047 H       1  UNL1        0.0709
     36 H           3.8936    1.9135    0.0604 H       1  UNL1        0.0646
     37 H           2.1458    3.5652    0.0164 H       1  UNL1        0.0813
     38 H          -0.1799    4.4848   -0.0767 H       1  UNL1        0.1648
     39 H          -1.9721    2.7680   -0.2517 H       1  UNL1        0.0813
     40 H           1.1392   -3.3858   -1.8874 H       1  UNL1        0.0813
     41 H          -0.6973   -4.9278   -2.4713 H       1  UNL1        0.1648
     42 H          -2.9834   -4.1262   -1.8658 H       1  UNL1        0.0813
     43 H          -4.6346   -2.6701   -1.1307 H       1  UNL1        0.0624
     44 H          -6.2598   -1.1508   -0.1449 H       1  UNL1        0.0624
     45 H          -6.7896    0.7308    1.2608 H       1  UNL1        0.0624
     46 H          -6.1010    2.5250    2.7911 H       1  UNL1        0.0618
     47 H          -3.6867    2.9223    3.2120 H       1  UNL1        0.0618
     48 H          -2.0033    1.5939    2.0668 H       1  UNL1        0.0624
     49 H           2.4145   -2.7071   -0.4037 H       1  UNL1        0.0836
@<TRIPOS>BOND
     1     1     2   ar
     2     2     3   ar
     3     3     4   ar
     4     4     5   ar
     5     4     6    1
     6     6     7   ar
     7     7     8   ar
     8     8     9   ar
     9     9    10   ar
    10    10    11   ar
    11    11    12   ar
    12    12    13   ar
    13    13    14   ar
    14    14    15   ar
    15    15    16   ar
    16    16    17   ar
    17    17    18   ar
    18    18    19   ar
    19    19    20   ar
    20    20    21   ar
    21    21    22   ar
    22    22    23   ar
    23    23    24   ar
    24    24    25   ar
    25    25    26   ar
    26    26    27   ar
    27    27    28   ar
    28    28    29   ar
    29    29    30   ar
    30    15    31   ar
    31    31    32   ar
    32    32    33   ar
    33     5     1   ar
    34    33     6   ar
    35    31     8   ar
    36    13     9   ar
    37    30    14   ar
    38    20    16   ar
    39    30    21   ar
    40    29    24   ar
    41     1    34    1
    42     2    35    1
    43     7    36    1
    44    10    37    1
    45    11    38    1
    46    12    39    1
    47    17    40    1
    48    18    41    1
    49    19    42    1
    50    22    43    1
    51    23    44    1
    52    25    45    1
    53    26    46    1
    54    27    47    1
    55    28    48    1
    56    32    49    1
