@<TRIPOS>MOLECULE
*****
 43 49 0 0 0
SMALL
GASTEIGER

@<TRIPOS>ATOM
      1 SI         -4.4067   -4.0457   -0.5353 Si      1  UNL1        0.0000
      2 C          -5.6090   -2.6599   -0.2627 C.2     1  UNL1        0.0000
      3 C          -4.9717   -1.4850   -0.0994 C.ar    1  UNL1        0.0000
      4 C          -5.6753   -0.2480    0.1290 C.ar    1  UNL1        0.0000
      5 C          -4.9949    0.8961    0.2859 C.ar    1  UNL1        0.0000
      6 C          -3.5218    0.9254    0.2302 C.ar    1  UNL1        0.0000
      7 C          -2.7889    2.1095    0.3913 C.ar    1  UNL1        0.0000
      8 C          -3.3748    3.3417    0.6147 C.ar    1  UNL1        0.0000
      9 S          -2.2298    4.6112    0.7727 S.2     1  UNL1        0.0000
     10 C          -0.9166    3.5281    0.5434 C.ar    1  UNL1        0.0000
     11 C          -1.3738    2.2534    0.3563 C.ar    1  UNL1        0.0000
     12 C          -0.5781    1.0540    0.1295 C.ar    1  UNL1        0.0000
     13 C           0.8596    0.9861    0.0591 C.ar    1  UNL1        0.0000
     14 C           1.9076    1.9147    0.1660 C.ar    1  UNL1        0.0000
     15 N           3.2101    1.5521    0.0535 N.ar    1  UNL1        0.0000
     16 C           3.5519    0.2624   -0.1693 C.ar    1  UNL1        0.0000
     17 C           2.5833   -0.7212   -0.2885 C.ar    1  UNL1        0.0000
     18 C           1.2391   -0.3344   -0.1703 C.ar    1  UNL1        0.0000
     19 S          -0.1027   -1.3810   -0.2841 S.2     1  UNL1        0.0000
     20 C          -1.2843   -0.1449   -0.0351 C.ar    1  UNL1        0.0000
     21 C          -2.7222   -0.2441    0.0084 C.ar    1  UNL1        0.0000
     22 C          -3.4827   -1.5315   -0.1680 C.ar    1  UNL1        0.0000
     23 C          -3.0279   -2.7849   -0.3885 C.2     1  UNL1        0.0000
     24 C           5.0004   -0.0396   -0.2781 C.ar    1  UNL1        0.0000
     25 C           5.9785    0.9508   -0.1583 C.ar    1  UNL1        0.0000
     26 C           7.3249    0.6076   -0.2694 C.ar    1  UNL1        0.0000
     27 C           7.6715   -0.7161   -0.4980 C.ar    1  UNL1        0.0000
     28 C           6.6529   -1.6450   -0.6062 C.ar    1  UNL1        0.0000
     29 N           5.3398   -1.3406   -0.5027 N.ar    1  UNL1        0.0000
     30 H          -4.3989   -5.0242    0.5787 H       1  UNL1        0.0000
     31 H          -4.5002   -4.6252   -1.8969 H       1  UNL1        0.0000
     32 H          -6.6735   -2.8323   -0.2468 H       1  UNL1        0.0000
     33 H          -6.7596   -0.2567    0.1720 H       1  UNL1        0.0000
     34 H          -5.5517    1.8081    0.4559 H       1  UNL1        0.0000
     35 H          -4.4185    3.6049    0.7003 H       1  UNL1        0.0000
     36 H           0.0717    3.9478    0.5705 H       1  UNL1        0.0000
     37 H           1.7764    2.9715    0.3425 H       1  UNL1        0.0000
     38 H           2.8526   -1.7573   -0.4673 H       1  UNL1        0.0000
     39 H          -2.0257   -3.1528   -0.4886 H       1  UNL1        0.0000
     40 H           5.6973    1.9846    0.0207 H       1  UNL1        0.0000
     41 H           8.0920    1.3711   -0.1776 H       1  UNL1        0.0000
     42 H           8.7090   -1.0167   -0.5895 H       1  UNL1        0.0000
     43 H           6.8708   -2.6941   -0.7850 H       1  UNL1        0.0000
@<TRIPOS>BOND
     1     1     2    1
     2     2     3    2
     3     3     4   ar
     4     4     5   ar
     5     5     6   ar
     6     6     7   ar
     7     7     8   ar
     8     8     9   ar
     9     9    10   ar
    10    10    11   ar
    11    11    12   ar
    12    12    13   ar
    13    13    14   ar
    14    14    15   ar
    15    15    16   ar
    16    16    17   ar
    17    17    18   ar
    18    18    19   ar
    19    19    20   ar
    20    20    21   ar
    21    21    22   ar
    22    22    23    2
    23    16    24    1
    24    24    25   ar
    25    25    26   ar
    26    26    27   ar
    27    27    28   ar
    28    28    29   ar
    29    23     1    1
    30    29    24   ar
    31    22     3   ar
    32    21     6   ar
    33    11     7   ar
    34    20    12   ar
    35    18    13   ar
    36     1    30    1
    37     1    31    1
    38     2    32    1
    39     4    33    1
    40     5    34    1
    41     8    35    1
    42    10    36    1
    43    14    37    1
    44    17    38    1
    45    23    39    1
    46    25    40    1
    47    26    41    1
    48    27    42    1
    49    28    43    1
