@<TRIPOS>MOLECULE
*****
 42 48 0 0 0
SMALL
GASTEIGER

@<TRIPOS>ATOM
      1 C           7.1663    0.5743   -1.4060 C.ar    1  UNL1        0.0355
      2 C           7.2006   -0.7917   -1.5679 C.ar    1  UNL1       -0.0042
      3 S           5.6224   -1.4319   -1.3973 S.2     1  UNL1       -0.0742
      4 C           5.0058    0.1605   -1.1140 C.ar    1  UNL1        0.1264
      5 N           5.9227    1.1122   -1.1475 N.ar    1  UNL1       -0.2458
      6 C           3.5645    0.3709   -0.8881 C.ar    1  UNL1        0.0965
      7 C           2.7846   -0.4718   -0.1024 C.ar    1  UNL1       -0.0253
      8 C           1.3970   -0.2317    0.0983 C.ar    1  UNL1       -0.0060
      9 C           0.5767   -1.0346    0.9468 C.ar    1  UNL1       -0.0094
     10 C           1.1068   -2.0980    1.7325 C.ar    1  UNL1       -0.0534
     11 C           0.3470   -2.8087    2.6579 C.ar    1  UNL1       -0.0611
     12 C          -0.9682   -2.4550    2.8514 C.ar    1  UNL1       -0.0611
     13 C          -1.5197   -1.4371    2.0739 C.ar    1  UNL1       -0.0534
     14 C          -0.8137   -0.7516    1.0524 C.ar    1  UNL1       -0.0089
     15 C          -1.4417    0.2554    0.2242 C.ar    1  UNL1        0.0003
     16 C          -0.5741    1.1694   -0.4215 C.ar    1  UNL1       -0.0075
     17 C          -1.1358    2.3585   -0.9416 C.ar    1  UNL1       -0.0528
     18 C          -2.5007    2.6339   -0.9234 C.ar    1  UNL1       -0.0534
     19 C          -3.4070    1.6800   -0.5010 C.ar    1  UNL1       -0.0151
     20 C          -4.7867    1.9950   -0.6363 C.ar    1  UNL1       -0.0519
     21 C          -5.8248    1.0988   -0.3722 C.ar    1  UNL1       -0.0329
     22 C          -5.4141   -0.1971   -0.0212 C.ar    1  UNL1        0.1005
     23 N          -6.2500   -1.2267    0.1834 N.ar    1  UNL1       -0.1908
     24 S          -5.3014   -2.5515    0.4651 S.2     1  UNL1        0.1165
     25 N          -3.8008   -1.8698    0.3719 N.ar    1  UNL1       -0.1901
     26 C          -3.9508   -0.5499    0.1502 C.ar    1  UNL1        0.1081
     27 C          -2.8902    0.4427    0.0057 C.ar    1  UNL1        0.0186
     28 C           0.8296    0.8915   -0.5372 C.ar    1  UNL1        0.0086
     29 C           1.7219    1.6770   -1.2985 C.ar    1  UNL1        0.0366
     30 N           3.0432    1.4555   -1.4834 N.ar    1  UNL1       -0.2523
     31 H           8.0238    1.2333   -1.4676 H       1  UNL1        0.0835
     32 H           8.0516   -1.4234   -1.7766 H       1  UNL1        0.0709
     33 H           3.2758   -1.3144    0.3692 H       1  UNL1        0.0646
     34 H           2.1517   -2.3856    1.6663 H       1  UNL1        0.0624
     35 H           0.7972   -3.6034    3.2457 H       1  UNL1        0.0618
     36 H          -1.5726   -2.9555    3.6024 H       1  UNL1        0.0618
     37 H          -2.5403   -1.1545    2.3193 H       1  UNL1        0.0624
     38 H          -0.5088    3.1413   -1.3625 H       1  UNL1        0.0624
     39 H          -2.8348    3.5914   -1.3209 H       1  UNL1        0.0624
     40 H          -5.0749    2.9874   -0.9905 H       1  UNL1        0.0624
     41 H          -6.8684    1.3595   -0.4954 H       1  UNL1        0.0640
     42 H           1.3902    2.5555   -1.8436 H       1  UNL1        0.0836
@<TRIPOS>BOND
     1     1     2   ar
     2     2     3   ar
     3     3     4   ar
     4     4     5   ar
     5     4     6    1
     6     6     7   ar
     7     7     8   ar
     8     8     9   ar
     9     9    10   ar
    10    10    11   ar
    11    11    12   ar
    12    12    13   ar
    13    13    14   ar
    14    14    15   ar
    15    15    16   ar
    16    16    17   ar
    17    17    18   ar
    18    18    19   ar
    19    19    20   ar
    20    20    21   ar
    21    21    22   ar
    22    22    23   ar
    23    23    24   ar
    24    24    25   ar
    25    25    26   ar
    26    26    27   ar
    27    16    28   ar
    28    28    29   ar
    29    29    30   ar
    30     5     1   ar
    31    30     6   ar
    32    28     8   ar
    33    14     9   ar
    34    27    15   ar
    35    27    19   ar
    36    26    22   ar
    37     1    31    1
    38     2    32    1
    39     7    33    1
    40    10    34    1
    41    11    35    1
    42    12    36    1
    43    13    37    1
    44    17    38    1
    45    18    39    1
    46    20    40    1
    47    21    41    1
    48    29    42    1
