@<TRIPOS>MOLECULE
*****
 43 49 0 0 0
SMALL
GASTEIGER

@<TRIPOS>ATOM
      1 C           6.6253   -0.6632   -2.6432 C.ar    1  UNL1        0.0355
      2 C           6.9700    0.5816   -2.1686 C.ar    1  UNL1       -0.0042
      3 S           5.6132    1.3090   -1.4199 S.2     1  UNL1       -0.0742
      4 C           4.6634   -0.0919   -1.7802 C.ar    1  UNL1        0.1264
      5 N           5.3186   -1.0448   -2.4201 N.ar    1  UNL1       -0.2458
      6 C           3.2415   -0.1429   -1.3985 C.ar    1  UNL1        0.0965
      7 C           2.7680    0.2913   -0.1645 C.ar    1  UNL1       -0.0253
      8 C           1.3874    0.2170    0.1717 C.ar    1  UNL1       -0.0060
      9 C           0.8544    0.6636    1.4207 C.ar    1  UNL1       -0.0094
     10 C           1.6913    1.1312    2.4736 C.ar    1  UNL1       -0.0534
     11 C           1.2057    1.4984    3.7261 C.ar    1  UNL1       -0.0611
     12 C          -0.1408    1.3808    3.9807 C.ar    1  UNL1       -0.0611
     13 C          -0.9896    0.9464    2.9631 C.ar    1  UNL1       -0.0534
     14 C          -0.5550    0.6426    1.6436 C.ar    1  UNL1       -0.0089
     15 C          -1.4811    0.2431    0.6088 C.ar    1  UNL1        0.0002
     16 C          -2.9554    0.5119    0.6382 C.ar    1  UNL1        0.0091
     17 C          -3.5572    1.5328    1.3994 C.ar    1  UNL1        0.0359
     18 N          -4.8853    1.8111    1.5185 N.ar    1  UNL1       -0.2626
     19 C          -5.7302    1.0573    0.8005 C.ar    1  UNL1        0.0282
     20 C          -5.3061    0.0666   -0.0557 C.ar    1  UNL1       -0.0353
     21 C          -3.9153   -0.1799   -0.1571 C.ar    1  UNL1       -0.0062
     22 C          -3.3041   -1.1037   -1.0314 C.ar    1  UNL1       -0.0025
     23 C          -4.0153   -1.9543   -1.8493 C.ar    1  UNL1       -0.0160
     24 S          -2.9870   -2.9865   -2.7443 S.2     1  UNL1       -0.1038
     25 C          -1.5879   -2.2862   -2.0437 C.ar    1  UNL1       -0.0160
     26 C          -1.8781   -1.2295   -1.2049 C.ar    1  UNL1       -0.0019
     27 C          -0.8945   -0.4628   -0.4899 C.ar    1  UNL1        0.0007
     28 C           0.5176   -0.3538   -0.7762 C.ar    1  UNL1        0.0092
     29 C           1.1040   -0.7118   -2.0063 C.ar    1  UNL1        0.0366
     30 N           2.4141   -0.6390   -2.3315 N.ar    1  UNL1       -0.2523
     31 H           7.2911   -1.3402   -3.1646 H       1  UNL1        0.0835
     32 H           7.9243    1.0842   -2.2289 H       1  UNL1        0.0709
     33 H           3.4918    0.6861    0.5382 H       1  UNL1        0.0646
     34 H           2.7686    1.1986    2.3541 H       1  UNL1        0.0624
     35 H           1.8868    1.8358    4.5024 H       1  UNL1        0.0618
     36 H          -0.5389    1.6066    4.9663 H       1  UNL1        0.0618
     37 H          -2.0259    0.7894    3.2570 H       1  UNL1        0.0624
     38 H          -2.9497    2.2523    1.9444 H       1  UNL1        0.0836
     39 H          -6.7838    1.2922    0.9169 H       1  UNL1        0.0830
     40 H          -6.0362   -0.4793   -0.6401 H       1  UNL1        0.0639
     41 H          -5.0838   -2.0638   -1.9653 H       1  UNL1        0.0700
     42 H          -0.6381   -2.7372   -2.2899 H       1  UNL1        0.0700
     43 H           0.5017   -1.0343   -2.8501 H       1  UNL1        0.0836
@<TRIPOS>BOND
     1     1     2   ar
     2     2     3   ar
     3     3     4   ar
     4     4     5   ar
     5     4     6    1
     6     6     7   ar
     7     7     8   ar
     8     8     9   ar
     9     9    10   ar
    10    10    11   ar
    11    11    12   ar
    12    12    13   ar
    13    13    14   ar
    14    14    15   ar
    15    15    16   ar
    16    16    17   ar
    17    17    18   ar
    18    18    19   ar
    19    19    20   ar
    20    20    21   ar
    21    21    22   ar
    22    22    23   ar
    23    23    24   ar
    24    24    25   ar
    25    25    26   ar
    26    26    27   ar
    27    27    28   ar
    28    28    29   ar
    29    29    30   ar
    30     5     1   ar
    31    30     6   ar
    32    28     8   ar
    33    14     9   ar
    34    27    15   ar
    35    21    16   ar
    36    26    22   ar
    37     1    31    1
    38     2    32    1
    39     7    33    1
    40    10    34    1
    41    11    35    1
    42    12    36    1
    43    13    37    1
    44    17    38    1
    45    19    39    1
    46    20    40    1
    47    23    41    1
    48    25    42    1
    49    29    43    1
