@<TRIPOS>MOLECULE
*****
 39 45 0 0 0
SMALL
GASTEIGER

@<TRIPOS>ATOM
      1 C           6.7718   -1.8596   -0.0475 C.ar    1  UNL1        0.0355
      2 C           7.1934   -0.6763   -0.6083 C.ar    1  UNL1       -0.0042
      3 S           5.8412    0.3216   -0.9312 S.2     1  UNL1       -0.0742
      4 C           4.7864   -0.8954   -0.2947 C.ar    1  UNL1        0.1264
      5 N           5.4097   -1.9813    0.1305 N.ar    1  UNL1       -0.2458
      6 C           3.3251   -0.6904   -0.2778 C.ar    1  UNL1        0.0965
      7 C           2.7265    0.5431   -0.0924 C.ar    1  UNL1       -0.0252
      8 C           1.3130    0.6116   -0.0840 C.ar    1  UNL1       -0.0030
      9 C           0.5672    1.8009    0.0223 C.ar    1  UNL1        0.0283
     10 C           1.0627    3.0743    0.1527 C.ar    1  UNL1        0.1000
     11 O           0.0346    3.9639    0.2159 O.2     1  UNL1       -0.4698
     12 C          -1.1253    3.2507    0.1200 C.ar    1  UNL1        0.1001
     13 C          -0.8566    1.9096   -0.0190 C.ar    1  UNL1        0.0301
     14 C          -1.7490    0.8323   -0.1342 C.ar    1  UNL1        0.0180
     15 C          -3.1631    0.9503   -0.2261 C.ar    1  UNL1        0.0556
     16 N          -4.0359    2.0182   -0.3248 N.ar    1  UNL1       -0.3601
     17 C          -5.3429    1.5841   -0.3940 C.ar    1  UNL1        0.0028
     18 C          -5.3492    0.2081   -0.3459 C.ar    1  UNL1       -0.0360
     19 C          -4.0030   -0.1464   -0.2556 C.ar    1  UNL1        0.0085
     20 C          -3.4146   -1.4312   -0.1513 C.ar    1  UNL1       -0.0011
     21 C          -4.1399   -2.5855   -0.0876 C.ar    1  UNL1       -0.0160
     22 S          -3.0629   -3.8951    0.1530 S.2     1  UNL1       -0.1038
     23 C          -1.6900   -2.8432    0.1741 C.ar    1  UNL1       -0.0160
     24 C          -1.9940   -1.5201   -0.0886 C.ar    1  UNL1       -0.0018
     25 C          -1.0310   -0.4470   -0.1489 C.ar    1  UNL1        0.0022
     26 C           0.4744   -0.5345   -0.2101 C.ar    1  UNL1        0.0093
     27 C           1.2294   -1.6939   -0.4472 C.ar    1  UNL1        0.0367
     28 N           2.5872   -1.8052   -0.4695 N.ar    1  UNL1       -0.2523
     29 H           7.4182   -2.6755    0.2524 H       1  UNL1        0.0835
     30 H           8.2009   -0.3629   -0.8401 H       1  UNL1        0.0709
     31 H           3.3240    1.4361    0.0456 H       1  UNL1        0.0646
     32 H           2.0499    3.5095    0.2173 H       1  UNL1        0.1036
     33 H          -2.0111    3.8609    0.1854 H       1  UNL1        0.1036
     34 H          -3.7693    2.9885   -0.3754 H       1  UNL1        0.1654
     35 H          -6.1519    2.2982   -0.4740 H       1  UNL1        0.0807
     36 H          -6.2241   -0.4266   -0.3767 H       1  UNL1        0.0639
     37 H          -5.2079   -2.7437   -0.1349 H       1  UNL1        0.0700
     38 H          -0.7521   -3.3126    0.4184 H       1  UNL1        0.0700
     39 H           0.7585   -2.6355   -0.7024 H       1  UNL1        0.0836
@<TRIPOS>BOND
     1     1     2   ar
     2     2     3   ar
     3     3     4   ar
     4     4     5   ar
     5     4     6    1
     6     6     7   ar
     7     7     8   ar
     8     8     9   ar
     9     9    10   ar
    10    10    11   ar
    11    11    12   ar
    12    12    13   ar
    13    13    14   ar
    14    14    15   ar
    15    15    16   ar
    16    16    17   ar
    17    17    18   ar
    18    18    19   ar
    19    19    20   ar
    20    20    21   ar
    21    21    22   ar
    22    22    23   ar
    23    23    24   ar
    24    24    25   ar
    25    25    26   ar
    26    26    27   ar
    27    27    28   ar
    28     5     1   ar
    29    28     6   ar
    30    26     8   ar
    31    13     9   ar
    32    25    14   ar
    33    19    15   ar
    34    24    20   ar
    35     1    29    1
    36     2    30    1
    37     7    31    1
    38    10    32    1
    39    12    33    1
    40    16    34    1
    41    17    35    1
    42    18    36    1
    43    21    37    1
    44    23    38    1
    45    27    39    1
