@<TRIPOS>MOLECULE
*****
 43 50 0 0 0
SMALL
GASTEIGER

@<TRIPOS>ATOM
      1 C           6.8249    1.4929   -0.1316 C.ar    1  UNL1        0.0354
      2 C           7.3234    0.2481   -0.4425 C.ar    1  UNL1       -0.0042
      3 S           6.0402   -0.8830   -0.5164 S.2     1  UNL1       -0.0756
      4 C           4.9246    0.3596   -0.0870 C.ar    1  UNL1        0.1089
      5 N           5.4579    1.5583    0.0506 N.ar    1  UNL1       -0.2473
      6 C           3.4993    0.0936   -0.0051 C.ar    1  UNL1        0.0184
      7 C           2.5283    0.9214   -0.5942 C.ar    1  UNL1       -0.0429
      8 C           1.0926    0.6778   -0.5145 C.ar    1  UNL1       -0.0052
      9 C           0.1348    1.5367   -1.0788 C.ar    1  UNL1        0.0282
     10 C           0.4015    2.6770   -1.7979 C.ar    1  UNL1        0.1000
     11 O          -0.7577    3.2245   -2.2459 O.2     1  UNL1       -0.4698
     12 C          -1.7730    2.4337   -1.8007 C.ar    1  UNL1        0.1000
     13 C          -1.2921    1.4054   -1.0202 C.ar    1  UNL1        0.0288
     14 C          -2.0377    0.3534   -0.4079 C.ar    1  UNL1        0.0033
     15 C          -3.5046    0.2555   -0.2832 C.ar    1  UNL1       -0.0073
     16 C          -4.4177    1.3266   -0.4617 C.ar    1  UNL1       -0.0534
     17 C          -5.8093    1.1782   -0.3621 C.ar    1  UNL1       -0.0611
     18 C          -6.3594   -0.0558   -0.0572 C.ar    1  UNL1       -0.0611
     19 C          -5.5140   -1.1303    0.1767 C.ar    1  UNL1       -0.0519
     20 C          -4.1096   -0.9702    0.0852 C.ar    1  UNL1        0.0109
     21 C          -3.2369   -2.0646    0.3589 C.ar    1  UNL1        0.1082
     22 N          -3.6347   -3.3153    0.6636 N.ar    1  UNL1       -0.1901
     23 S          -2.2755   -4.2301    0.8343 S.2     1  UNL1        0.1165
     24 N          -1.1240   -3.0842    0.5650 N.ar    1  UNL1       -0.1901
     25 C          -1.7348   -1.9060    0.3458 C.ar    1  UNL1        0.1088
     26 C          -1.0796   -0.6514    0.0525 C.ar    1  UNL1        0.0200
     27 C           0.4204   -0.4423    0.1235 C.ar    1  UNL1        0.0034
     28 C           1.4613   -1.1711    0.7948 C.ar    1  UNL1        0.0289
     29 C           1.3267   -2.1451    1.7563 C.ar    1  UNL1        0.1000
     30 O           2.5452   -2.5533    2.2125 O.2     1  UNL1       -0.4698
     31 C           3.4880   -1.8010    1.5849 C.ar    1  UNL1        0.1000
     32 C           2.8827   -0.9176    0.7263 C.ar    1  UNL1        0.0301
     33 H           7.4162    2.3950   -0.0304 H       1  UNL1        0.0835
     34 H           8.3471   -0.0398   -0.6333 H       1  UNL1        0.0709
     35 H           2.8875    1.7989   -1.1331 H       1  UNL1        0.0631
     36 H           1.2983    3.2016   -2.0968 H       1  UNL1        0.1036
     37 H          -2.7426    2.7391   -2.1630 H       1  UNL1        0.1036
     38 H          -4.0634    2.3386   -0.6259 H       1  UNL1        0.0624
     39 H          -6.4567    2.0396   -0.5099 H       1  UNL1        0.0618
     40 H          -7.4363   -0.1766    0.0212 H       1  UNL1        0.0618
     41 H          -5.9434   -2.0948    0.4425 H       1  UNL1        0.0624
     42 H           0.4972   -2.6275    2.2492 H       1  UNL1        0.1036
     43 H           4.5049   -1.9956    1.8951 H       1  UNL1        0.1036
@<TRIPOS>BOND
     1     1     2   ar
     2     2     3   ar
     3     3     4   ar
     4     4     5   ar
     5     4     6    1
     6     6     7   ar
     7     7     8   ar
     8     8     9   ar
     9     9    10   ar
    10    10    11   ar
    11    11    12   ar
    12    12    13   ar
    13    13    14   ar
    14    14    15   ar
    15    15    16   ar
    16    16    17   ar
    17    17    18   ar
    18    18    19   ar
    19    19    20   ar
    20    20    21   ar
    21    21    22   ar
    22    22    23   ar
    23    23    24   ar
    24    24    25   ar
    25    25    26   ar
    26    26    27   ar
    27    27    28   ar
    28    28    29   ar
    29    29    30   ar
    30    30    31   ar
    31    31    32   ar
    32     5     1   ar
    33    32     6   ar
    34    27     8   ar
    35    32    28   ar
    36    13     9   ar
    37    26    14   ar
    38    20    15   ar
    39    25    21   ar
    40     1    33    1
    41     2    34    1
    42     7    35    1
    43    10    36    1
    44    12    37    1
    45    16    38    1
    46    17    39    1
    47    18    40    1
    48    19    41    1
    49    29    42    1
    50    31    43    1
