@<TRIPOS>MOLECULE
*****
 42 49 0 0 0
SMALL
GASTEIGER

@<TRIPOS>ATOM
      1 C           7.4361   -0.4295    0.7947 C.ar    1  UNL1        0.0355
      2 C           7.5465    0.7246    1.5363 C.ar    1  UNL1       -0.0042
      3 S           6.0057    1.4525    1.6982 S.2     1  UNL1       -0.0752
      4 C           5.3057    0.1792    0.7705 C.ar    1  UNL1        0.1148
      5 N           6.1624   -0.7382    0.3600 N.ar    1  UNL1       -0.2468
      6 C           3.8996    0.0845    0.4447 C.ar    1  UNL1        0.0455
      7 C           3.3171   -0.9267   -0.2932 C.ar    1  UNL1       -0.0366
      8 C           1.9304   -0.7180   -0.4169 C.ar    1  UNL1       -0.0013
      9 C           1.0416   -1.5565   -1.1537 C.ar    1  UNL1       -0.0020
     10 C           1.4363   -2.6267   -1.9065 C.ar    1  UNL1       -0.0160
     11 S           0.0766   -3.2399   -2.7538 S.2     1  UNL1       -0.1038
     12 C          -0.9594   -2.0388   -2.0770 C.ar    1  UNL1       -0.0160
     13 C          -0.3399   -1.2520   -1.1225 C.ar    1  UNL1       -0.0019
     14 C          -1.0027   -0.2024   -0.4149 C.ar    1  UNL1        0.0003
     15 C          -0.0123    0.7347    0.0913 C.ar    1  UNL1        0.0059
     16 C          -0.6256    1.9547    0.4811 C.ar    1  UNL1       -0.0015
     17 C           0.0510    3.0980    0.8527 C.ar    1  UNL1       -0.0160
     18 S          -0.9781    4.4145    1.2242 S.2     1  UNL1       -0.1038
     19 C          -2.3677    3.4983    0.8507 C.ar    1  UNL1       -0.0160
     20 C          -2.0639    2.2134    0.4499 C.ar    1  UNL1       -0.0025
     21 C          -3.0705    1.2700    0.1029 C.ar    1  UNL1       -0.0084
     22 C          -4.5017    1.5566    0.1267 C.ar    1  UNL1       -0.0528
     23 C          -5.5070    0.6054   -0.0990 C.ar    1  UNL1       -0.0529
     24 C          -4.9613   -0.6588   -0.2567 C.ar    1  UNL1       -0.0103
     25 C          -5.7709   -1.7657   -0.3432 C.ar    1  UNL1       -0.0166
     26 S          -4.8472   -3.2072   -0.3529 S.2     1  UNL1       -0.1039
     27 C          -3.3721   -2.3351   -0.2310 C.ar    1  UNL1       -0.0160
     28 C          -3.5479   -0.9693   -0.3107 C.ar    1  UNL1       -0.0026
     29 C          -2.4787   -0.0065   -0.2452 C.ar    1  UNL1       -0.0007
     30 C           1.3932    0.4227    0.1630 C.ar    1  UNL1        0.0289
     31 S           2.7268    1.2331    0.9303 S.2     1  UNL1       -0.0855
     32 H           8.2572   -1.0884    0.5392 H       1  UNL1        0.0835
     33 H           8.4309    1.1612    1.9770 H       1  UNL1        0.0709
     34 H           3.8873   -1.7532   -0.7003 H       1  UNL1        0.0636
     35 H           2.4155   -3.0586   -2.0567 H       1  UNL1        0.0700
     36 H          -1.9749   -1.9969   -2.4439 H       1  UNL1        0.0700
     37 H           1.1057    3.2969    0.9264 H       1  UNL1        0.0700
     38 H          -3.3286    3.9797    0.9527 H       1  UNL1        0.0700
     39 H          -4.8406    2.5673    0.3483 H       1  UNL1        0.0624
     40 H          -6.5619    0.8412   -0.0581 H       1  UNL1        0.0624
     41 H          -6.8511   -1.8179   -0.3558 H       1  UNL1        0.0699
     42 H          -2.4619   -2.9027   -0.1050 H       1  UNL1        0.0700
@<TRIPOS>BOND
     1     1     2   ar
     2     2     3   ar
     3     3     4   ar
     4     4     5   ar
     5     4     6    1
     6     6     7   ar
     7     7     8   ar
     8     8     9   ar
     9     9    10   ar
    10    10    11   ar
    11    11    12   ar
    12    12    13   ar
    13    13    14   ar
    14    14    15   ar
    15    15    16   ar
    16    16    17   ar
    17    17    18   ar
    18    18    19   ar
    19    19    20   ar
    20    20    21   ar
    21    21    22   ar
    22    22    23   ar
    23    23    24   ar
    24    24    25   ar
    25    25    26   ar
    26    26    27   ar
    27    27    28   ar
    28    28    29   ar
    29    15    30   ar
    30    30    31   ar
    31     5     1   ar
    32    31     6   ar
    33    30     8   ar
    34    13     9   ar
    35    29    14   ar
    36    20    16   ar
    37    29    21   ar
    38    28    24   ar
    39     1    32    1
    40     2    33    1
    41     7    34    1
    42    10    35    1
    43    12    36    1
    44    17    37    1
    45    19    38    1
    46    22    39    1
    47    23    40    1
    48    25    41    1
    49    27    42    1
