@<TRIPOS>MOLECULE
*****
 43 49 0 0 0
SMALL
GASTEIGER

@<TRIPOS>ATOM
      1 C          -7.6723   -1.0942    0.2698 C.ar    1  UNL1        0.0355
      2 C          -8.1542    0.1424    0.6322 C.ar    1  UNL1       -0.0042
      3 S          -6.8585    1.2535    0.7510 S.2     1  UNL1       -0.0742
      4 C          -5.7452    0.0070    0.3102 C.ar    1  UNL1        0.1264
      5 N          -6.3060   -1.1721    0.0870 N.ar    1  UNL1       -0.2458
      6 C          -4.2979    0.2758    0.2032 C.ar    1  UNL1        0.0965
      7 C          -3.4196   -0.7371   -0.1539 C.ar    1  UNL1       -0.0253
      8 C          -2.0390   -0.4413   -0.2446 C.ar    1  UNL1       -0.0041
      9 C          -1.0027   -1.3103   -0.6544 C.ar    1  UNL1       -0.0023
     10 C          -1.2268   -2.5921   -1.1049 C.ar    1  UNL1       -0.0160
     11 S           0.2079   -3.3113   -1.7017 S.2     1  UNL1       -0.1038
     12 C           1.1227   -1.9023   -1.3595 C.ar    1  UNL1       -0.0159
     13 C           0.3953   -0.9469   -0.6819 C.ar    1  UNL1       -0.0005
     14 C           0.9243    0.3198   -0.2603 C.ar    1  UNL1        0.0175
     15 C          -0.1542    1.2442   -0.0365 C.ar    1  UNL1        0.0813
     16 N           0.1222    2.5467    0.1066 N.ar    1  UNL1       -0.2537
     17 C           1.3959    2.9756   -0.0069 C.ar    1  UNL1        0.0360
     18 C           2.5077    2.1554   -0.1177 C.ar    1  UNL1        0.0014
     19 C           3.7821    2.7274   -0.2128 C.ar    1  UNL1       -0.0520
     20 C           4.9154    1.9277   -0.2324 C.ar    1  UNL1       -0.0534
     21 C           4.8027    0.5532   -0.0418 C.ar    1  UNL1       -0.0173
     22 C           5.9731   -0.2167    0.0725 C.ar    1  UNL1       -0.0540
     23 C           5.9128   -1.5692    0.3903 C.ar    1  UNL1       -0.0612
     24 C           4.6811   -2.1543    0.6290 C.ar    1  UNL1       -0.0611
     25 C           3.5133   -1.3959    0.4957 C.ar    1  UNL1       -0.0534
     26 C           3.5178   -0.0404    0.0846 C.ar    1  UNL1       -0.0095
     27 C           2.3176    0.7620   -0.1102 C.ar    1  UNL1        0.0011
     28 C          -1.5416    0.8625    0.0239 C.ar    1  UNL1        0.0268
     29 C          -2.5371    1.7868    0.3574 C.ar    1  UNL1        0.0381
     30 N          -3.8720    1.5350    0.4563 N.ar    1  UNL1       -0.2522
     31 H          -8.2777   -1.9805    0.1239 H       1  UNL1        0.0835
     32 H          -9.1744    0.4385    0.8274 H       1  UNL1        0.0709
     33 H          -3.8013   -1.7308   -0.3626 H       1  UNL1        0.0646
     34 H          -2.1534   -3.1450   -1.1716 H       1  UNL1        0.0700
     35 H           2.1526   -1.8757   -1.6857 H       1  UNL1        0.0700
     36 H           1.4970    4.0587    0.0287 H       1  UNL1        0.0836
     37 H           3.9047    3.8076   -0.2692 H       1  UNL1        0.0624
     38 H           5.8912    2.4009   -0.3200 H       1  UNL1        0.0624
     39 H           6.9513    0.2429   -0.0558 H       1  UNL1        0.0624
     40 H           6.8257   -2.1498    0.4904 H       1  UNL1        0.0618
     41 H           4.6194   -3.1963    0.9327 H       1  UNL1        0.0618
     42 H           2.5801   -1.8840    0.7665 H       1  UNL1        0.0624
     43 H          -2.2800    2.8226    0.5782 H       1  UNL1        0.0836
@<TRIPOS>BOND
     1     1     2   ar
     2     2     3   ar
     3     3     4   ar
     4     4     5   ar
     5     4     6    1
     6     6     7   ar
     7     7     8   ar
     8     8     9   ar
     9     9    10   ar
    10    10    11   ar
    11    11    12   ar
    12    12    13   ar
    13    13    14   ar
    14    14    15   ar
    15    15    16   ar
    16    16    17   ar
    17    17    18   ar
    18    18    19   ar
    19    19    20   ar
    20    20    21   ar
    21    21    22   ar
    22    22    23   ar
    23    23    24   ar
    24    24    25   ar
    25    25    26   ar
    26    26    27   ar
    27    15    28   ar
    28    28    29   ar
    29    29    30   ar
    30     5     1   ar
    31    30     6   ar
    32    28     8   ar
    33    13     9   ar
    34    27    14   ar
    35    27    18   ar
    36    26    21   ar
    37     1    31    1
    38     2    32    1
    39     7    33    1
    40    10    34    1
    41    12    35    1
    42    17    36    1
    43    19    37    1
    44    20    38    1
    45    22    39    1
    46    23    40    1
    47    24    41    1
    48    25    42    1
    49    29    43    1
