@<TRIPOS>MOLECULE
*****
 43 50 0 0 0
SMALL
GASTEIGER

@<TRIPOS>ATOM
      1 C           6.9796   -1.2351    0.5107 C.ar    1  UNL1        0.0354
      2 C           6.9103   -1.4656    1.8650 C.ar    1  UNL1       -0.0042
      3 S           5.3024   -1.2399    2.4041 S.2     1  UNL1       -0.0756
      4 C           4.8113   -0.8556    0.7909 C.ar    1  UNL1        0.1089
      5 N           5.7892   -0.8867   -0.0944 N.ar    1  UNL1       -0.2473
      6 C           3.4213   -0.5174    0.5023 C.ar    1  UNL1        0.0184
      7 C           2.2852   -1.0104    1.1769 C.ar    1  UNL1       -0.0430
      8 C           0.8974   -0.6609    0.8544 C.ar    1  UNL1       -0.0077
      9 C          -0.2282   -1.2108    1.5212 C.ar    1  UNL1       -0.0025
     10 C          -0.1067   -2.1025    2.5680 C.ar    1  UNL1       -0.0160
     11 S          -1.6147   -2.5260    3.2475 S.2     1  UNL1       -0.1038
     12 C          -2.4459   -1.5160    2.1467 C.ar    1  UNL1       -0.0160
     13 C          -1.6215   -0.9406    1.1997 C.ar    1  UNL1       -0.0019
     14 C          -2.1005   -0.0564    0.1739 C.ar    1  UNL1        0.0008
     15 C          -3.5010    0.1294   -0.2592 C.ar    1  UNL1       -0.0074
     16 C          -4.5555   -0.7918   -0.0284 C.ar    1  UNL1       -0.0534
     17 C          -5.8815   -0.5629   -0.4249 C.ar    1  UNL1       -0.0611
     18 C          -6.2165    0.5996   -1.0997 C.ar    1  UNL1       -0.0611
     19 C          -5.2172    1.5109   -1.4080 C.ar    1  UNL1       -0.0519
     20 C          -3.8784    1.2644   -1.0166 C.ar    1  UNL1        0.0109
     21 C          -2.8373    2.1690   -1.3750 C.ar    1  UNL1        0.1082
     22 N          -3.0109    3.3338   -2.0293 N.ar    1  UNL1       -0.1901
     23 S          -1.5279    4.0393   -2.1655 S.2     1  UNL1        0.1165
     24 N          -0.5973    2.8918   -1.4375 N.ar    1  UNL1       -0.1901
     25 C          -1.3913    1.8731   -1.0609 C.ar    1  UNL1        0.1088
     26 C          -0.9676    0.6751   -0.3697 C.ar    1  UNL1        0.0199
     27 C           0.4692    0.2874   -0.1580 C.ar    1  UNL1        0.0033
     28 C           1.6581    0.6765   -0.8626 C.ar    1  UNL1        0.0289
     29 C           1.7526    1.3537   -2.0563 C.ar    1  UNL1        0.1000
     30 O           3.0549    1.5128   -2.4266 O.2     1  UNL1       -0.4698
     31 C           3.8192    0.8783   -1.4984 C.ar    1  UNL1        0.1000
     32 C           3.0146    0.3001   -0.5482 C.ar    1  UNL1        0.0301
     33 H           7.8782   -1.3060   -0.0902 H       1  UNL1        0.0835
     34 H           7.7040   -1.7456    2.5423 H       1  UNL1        0.0709
     35 H           2.4603   -1.7226    1.9810 H       1  UNL1        0.0631
     36 H           0.7790   -2.5258    3.0178 H       1  UNL1        0.0700
     37 H          -3.5072   -1.4021    2.3021 H       1  UNL1        0.0700
     38 H          -4.3544   -1.7611    0.4208 H       1  UNL1        0.0624
     39 H          -6.6449   -1.3088   -0.2157 H       1  UNL1        0.0618
     40 H          -7.2417    0.7829   -1.4092 H       1  UNL1        0.0618
     41 H          -5.4716    2.4091   -1.9682 H       1  UNL1        0.0624
     42 H           1.0488    1.7627   -2.7643 H       1  UNL1        0.1036
     43 H           4.8843    0.9007   -1.6848 H       1  UNL1        0.1036
@<TRIPOS>BOND
     1     1     2   ar
     2     2     3   ar
     3     3     4   ar
     4     4     5   ar
     5     4     6    1
     6     6     7   ar
     7     7     8   ar
     8     8     9   ar
     9     9    10   ar
    10    10    11   ar
    11    11    12   ar
    12    12    13   ar
    13    13    14   ar
    14    14    15   ar
    15    15    16   ar
    16    16    17   ar
    17    17    18   ar
    18    18    19   ar
    19    19    20   ar
    20    20    21   ar
    21    21    22   ar
    22    22    23   ar
    23    23    24   ar
    24    24    25   ar
    25    25    26   ar
    26    26    27   ar
    27    27    28   ar
    28    28    29   ar
    29    29    30   ar
    30    30    31   ar
    31    31    32   ar
    32     5     1   ar
    33    32     6   ar
    34    27     8   ar
    35    32    28   ar
    36    13     9   ar
    37    26    14   ar
    38    20    15   ar
    39    25    21   ar
    40     1    33    1
    41     2    34    1
    42     7    35    1
    43    10    36    1
    44    12    37    1
    45    16    38    1
    46    17    39    1
    47    18    40    1
    48    19    41    1
    49    29    42    1
    50    31    43    1
