@<TRIPOS>MOLECULE
*****
 27 31 0 0 0
SMALL
GASTEIGER

@<TRIPOS>ATOM
      1 C           5.4934   -0.7723    0.1745 C.ar    1  UNL1        0.0355
      2 C           5.7964    0.5303    0.4991 C.ar    1  UNL1       -0.0042
      3 S           4.3547    1.4483    0.5939 S.2     1  UNL1       -0.0752
      4 C           3.4344    0.0459    0.1962 C.ar    1  UNL1        0.1148
      5 N           4.1511   -1.0456    0.0028 N.ar    1  UNL1       -0.2468
      6 C           1.9926    0.0228    0.0741 C.ar    1  UNL1        0.0455
      7 C           1.2336   -1.0902   -0.2437 C.ar    1  UNL1       -0.0351
      8 C          -0.1377   -0.7701   -0.2810 C.ar    1  UNL1        0.0187
      9 C          -1.1790   -1.7127   -0.5825 C.ar    1  UNL1        0.1087
     10 N          -0.9282   -2.9844   -0.8552 N.ar    1  UNL1       -0.1901
     11 S          -2.4579   -3.6103   -1.1232 S.2     1  UNL1        0.1165
     12 N          -3.3940   -2.2431   -0.8840 N.ar    1  UNL1       -0.1901
     13 C          -2.5487   -1.2334   -0.5830 C.ar    1  UNL1        0.1083
     14 C          -2.9011    0.1208   -0.2995 C.ar    1  UNL1        0.0143
     15 C          -4.2256    0.5903   -0.2986 C.ar    1  UNL1       -0.0337
     16 C          -4.4399    1.9251   -0.0084 C.ar    1  UNL1        0.0282
     17 N          -3.4520    2.8031    0.2738 N.ar    1  UNL1       -0.2626
     18 C          -2.1804    2.3325    0.2684 C.ar    1  UNL1        0.0364
     19 C          -1.8332    1.0053   -0.0093 C.ar    1  UNL1        0.0167
     20 C          -0.4775    0.5415   -0.0064 C.ar    1  UNL1        0.0313
     21 S           0.9925    1.4029    0.3111 S.2     1  UNL1       -0.0855
     22 H           6.2164   -1.5694    0.0494 H       1  UNL1        0.0835
     23 H           6.7655    0.9725    0.6794 H       1  UNL1        0.0709
     24 H           1.6630   -2.0685   -0.4343 H       1  UNL1        0.0636
     25 H          -5.0607   -0.0672   -0.5177 H       1  UNL1        0.0639
     26 H          -5.4443    2.3398    0.0057 H       1  UNL1        0.0830
     27 H          -1.4333    3.0863    0.5025 H       1  UNL1        0.0836
@<TRIPOS>BOND
     1     1     2   ar
     2     2     3   ar
     3     3     4   ar
     4     4     5   ar
     5     4     6    1
     6     6     7   ar
     7     7     8   ar
     8     8     9   ar
     9     9    10   ar
    10    10    11   ar
    11    11    12   ar
    12    12    13   ar
    13    13    14   ar
    14    14    15   ar
    15    15    16   ar
    16    16    17   ar
    17    17    18   ar
    18    18    19   ar
    19    19    20   ar
    20    20    21   ar
    21     5     1   ar
    22    21     6   ar
    23    20     8   ar
    24    13     9   ar
    25    19    14   ar
    26     1    22    1
    27     2    23    1
    28     7    24    1
    29    15    25    1
    30    16    26    1
    31    18    27    1
