@<TRIPOS>MOLECULE
*****
 43 50 0 0 0
SMALL
GASTEIGER

@<TRIPOS>ATOM
      1 C           7.0314   -1.5447   -0.9503 C.ar    1  UNL1        0.0354
      2 C           7.5326   -0.2715   -0.7952 C.ar    1  UNL1       -0.0042
      3 S           6.2785    0.7851   -0.2996 S.2     1  UNL1       -0.0757
      4 C           5.1761   -0.5404   -0.2946 C.ar    1  UNL1        0.1088
      5 N           5.6853   -1.6928   -0.6808 N.ar    1  UNL1       -0.2473
      6 C           3.7755   -0.3271    0.0230 C.ar    1  UNL1        0.0159
      7 C           2.7437   -0.5370   -0.9237 C.ar    1  UNL1       -0.0437
      8 C           1.3442   -0.3355   -0.6716 C.ar    1  UNL1       -0.0160
      9 C           0.4119   -0.5606   -1.6833 C.ar    1  UNL1       -0.0441
     10 C          -0.9804   -0.3701   -1.4771 C.ar    1  UNL1        0.0115
     11 C          -1.8875   -0.6218   -2.5570 C.ar    1  UNL1        0.1082
     12 N          -1.5472   -1.0332   -3.7943 N.ar    1  UNL1       -0.1901
     13 S          -2.9448   -1.1802   -4.6625 S.2     1  UNL1        0.1165
     14 N          -4.0502   -0.7287   -3.5209 N.ar    1  UNL1       -0.1901
     15 C          -3.3688   -0.4399   -2.3942 C.ar    1  UNL1        0.1082
     16 C          -3.9388   -0.0045   -1.1563 C.ar    1  UNL1        0.0116
     17 C          -5.3872    0.1446   -1.0908 C.ar    1  UNL1       -0.0512
     18 C          -6.0917    0.5648    0.0455 C.ar    1  UNL1       -0.0504
     19 C          -5.2041    0.8132    1.0725 C.ar    1  UNL1        0.0205
     20 C          -5.5665    1.2455    2.3189 C.ar    1  UNL1        0.0994
     21 O          -4.4510    1.3959    3.0821 O.2     1  UNL1       -0.4698
     22 C          -3.3750    1.0545    2.3095 C.ar    1  UNL1        0.1000
     23 C          -3.7730    0.6777    1.0472 C.ar    1  UNL1        0.0282
     24 C          -2.9858    0.2476   -0.0779 C.ar    1  UNL1        0.0027
     25 C          -1.5277    0.0621   -0.2347 C.ar    1  UNL1       -0.0067
     26 C          -0.5654    0.2774    0.7780 C.ar    1  UNL1       -0.0450
     27 C           0.8354    0.0909    0.5849 C.ar    1  UNL1       -0.0090
     28 C           1.8726    0.2764    1.5490 C.ar    1  UNL1       -0.0025
     29 C           1.6557    0.6644    2.8517 C.ar    1  UNL1       -0.0160
     30 S           3.1175    0.7576    3.7463 S.2     1  UNL1       -0.1038
     31 C           4.0575    0.2745    2.3946 C.ar    1  UNL1       -0.0159
     32 C           3.2822    0.0709    1.2752 C.ar    1  UNL1       -0.0006
     33 H           7.6056   -2.4077   -1.2654 H       1  UNL1        0.0835
     34 H           8.5421    0.0794   -0.9530 H       1  UNL1        0.0709
     35 H           3.0454   -0.8753   -1.9185 H       1  UNL1        0.0630
     36 H           0.7600   -0.8934   -2.6620 H       1  UNL1        0.0630
     37 H          -5.9763   -0.0833   -1.9825 H       1  UNL1        0.0624
     38 H          -7.1662    0.6722    0.0813 H       1  UNL1        0.0625
     39 H          -6.5029    1.4839    2.8035 H       1  UNL1        0.1035
     40 H          -2.4407    1.1499    2.8365 H       1  UNL1        0.1036
     41 H          -0.8766    0.5946    1.7601 H       1  UNL1        0.0630
     42 H           0.7278    0.8953    3.3541 H       1  UNL1        0.0700
     43 H           5.1267    0.1693    2.5165 H       1  UNL1        0.0700
@<TRIPOS>BOND
     1     1     2   ar
     2     2     3   ar
     3     3     4   ar
     4     4     5   ar
     5     4     6    1
     6     6     7   ar
     7     7     8   ar
     8     8     9   ar
     9     9    10   ar
    10    10    11   ar
    11    11    12   ar
    12    12    13   ar
    13    13    14   ar
    14    14    15   ar
    15    15    16   ar
    16    16    17   ar
    17    17    18   ar
    18    18    19   ar
    19    19    20   ar
    20    20    21   ar
    21    21    22   ar
    22    22    23   ar
    23    23    24   ar
    24    24    25   ar
    25    25    26   ar
    26    26    27   ar
    27    27    28   ar
    28    28    29   ar
    29    29    30   ar
    30    30    31   ar
    31    31    32   ar
    32     5     1   ar
    33    32     6   ar
    34    27     8   ar
    35    32    28   ar
    36    25    10   ar
    37    15    11   ar
    38    24    16   ar
    39    23    19   ar
    40     1    33    1
    41     2    34    1
    42     7    35    1
    43     9    36    1
    44    17    37    1
    45    18    38    1
    46    20    39    1
    47    22    40    1
    48    26    41    1
    49    29    42    1
    50    31    43    1
