@<TRIPOS>MOLECULE
*****
 40 46 0 0 0
SMALL
GASTEIGER

@<TRIPOS>ATOM
      1 C           6.4571   -1.9391    0.3976 C.ar    1  UNL1        0.0354
      2 C           6.8728   -0.8092    1.0658 C.ar    1  UNL1       -0.0042
      3 S           5.5637    0.2852    1.2167 S.2     1  UNL1       -0.0757
      4 C           4.5573   -0.8110    0.3453 C.ar    1  UNL1        0.1088
      5 N           5.1333   -1.9469    0.0051 N.ar    1  UNL1       -0.2473
      6 C           3.1546   -0.5040    0.1256 C.ar    1  UNL1        0.0159
      7 C           2.1170   -1.3521    0.5666 C.ar    1  UNL1       -0.0437
      8 C           0.7149   -1.1028    0.3948 C.ar    1  UNL1       -0.0160
      9 C          -0.1727   -2.0931    0.8280 C.ar    1  UNL1       -0.0533
     10 C          -1.5581   -1.9656    0.6958 C.ar    1  UNL1       -0.0514
     11 C          -2.1269   -0.7792    0.2130 C.ar    1  UNL1        0.0073
     12 C          -3.5612   -0.6994    0.1577 C.ar    1  UNL1        0.0550
     13 N          -4.5718   -1.6103    0.4129 N.ar    1  UNL1       -0.3601
     14 C          -5.8106   -1.0294    0.2258 C.ar    1  UNL1        0.0028
     15 C          -5.6313    0.2877   -0.1434 C.ar    1  UNL1       -0.0360
     16 C          -4.2507    0.4495   -0.1815 C.ar    1  UNL1        0.0110
     17 C          -3.4703    1.5922   -0.4379 C.ar    1  UNL1        0.0296
     18 C          -3.8576    2.8733   -0.6636 C.ar    1  UNL1        0.1000
     19 O          -2.7191    3.6323   -0.7087 O.2     1  UNL1       -0.4698
     20 C          -1.6551    2.7857   -0.5105 C.ar    1  UNL1        0.1000
     21 C          -2.0688    1.4729   -0.4141 C.ar    1  UNL1        0.0288
     22 C          -1.2719    0.3087   -0.1757 C.ar    1  UNL1        0.0031
     23 C           0.1745    0.0870   -0.2076 C.ar    1  UNL1       -0.0012
     24 C           1.2432    0.8484   -0.7991 C.ar    1  UNL1       -0.0019
     25 C           1.0599    1.8108   -1.7663 C.ar    1  UNL1       -0.0160
     26 S           2.5309    2.5262   -2.2794 S.2     1  UNL1       -0.1038
     27 C           3.4577    1.4370   -1.3382 C.ar    1  UNL1       -0.0159
     28 C           2.6608    0.5690   -0.6246 C.ar    1  UNL1       -0.0006
     29 H           7.0803   -2.7964    0.1732 H       1  UNL1        0.0835
     30 H           7.8500   -0.5851    1.4681 H       1  UNL1        0.0709
     31 H           2.4218   -2.2720    1.0731 H       1  UNL1        0.0630
     32 H           0.2096   -3.0185    1.2589 H       1  UNL1        0.0624
     33 H          -2.1745   -2.7979    1.0235 H       1  UNL1        0.0624
     34 H          -4.4252   -2.5708    0.6886 H       1  UNL1        0.1654
     35 H          -6.7113   -1.6080    0.3825 H       1  UNL1        0.0807
     36 H          -6.4102    1.0103   -0.3447 H       1  UNL1        0.0639
     37 H          -4.7927    3.4045   -0.7611 H       1  UNL1        0.1036
     38 H          -0.7041    3.2926   -0.4400 H       1  UNL1        0.1036
     39 H           0.1495    2.1389   -2.2439 H       1  UNL1        0.0700
     40 H           4.5355    1.4787   -1.4108 H       1  UNL1        0.0700
@<TRIPOS>BOND
     1     1     2   ar
     2     2     3   ar
     3     3     4   ar
     4     4     5   ar
     5     4     6    1
     6     6     7   ar
     7     7     8   ar
     8     8     9   ar
     9     9    10   ar
    10    10    11   ar
    11    11    12   ar
    12    12    13   ar
    13    13    14   ar
    14    14    15   ar
    15    15    16   ar
    16    16    17   ar
    17    17    18   ar
    18    18    19   ar
    19    19    20   ar
    20    20    21   ar
    21    21    22   ar
    22    22    23   ar
    23    23    24   ar
    24    24    25   ar
    25    25    26   ar
    26    26    27   ar
    27    27    28   ar
    28     5     1   ar
    29    28     6   ar
    30    23     8   ar
    31    28    24   ar
    32    22    11   ar
    33    16    12   ar
    34    21    17   ar
    35     1    29    1
    36     2    30    1
    37     7    31    1
    38     9    32    1
    39    10    33    1
    40    13    34    1
    41    14    35    1
    42    15    36    1
    43    18    37    1
    44    20    38    1
    45    25    39    1
    46    27    40    1
