@<TRIPOS>MOLECULE
*****
 32 37 0 0 0
SMALL
GASTEIGER

@<TRIPOS>ATOM
      1 SI         -1.0567   -0.1965   -1.4490 Si      1  UNL1        0.0000
      2 C          -2.2381    0.1332    0.0173 C.2     1  UNL1        0.0000
      3 C          -1.5538    0.2935    1.1731 C.2     1  UNL1        0.0000
      4 C          -0.0996    0.1766    1.0202 C.ar    1  UNL1        0.0000
      5 C           0.3767   -0.0823   -0.2891 C.ar    1  UNL1        0.0000
      6 C           1.7444   -0.2160   -0.5660 C.ar    1  UNL1        0.0000
      7 S           2.5698   -0.5278   -2.0516 S.2     1  UNL1        0.0000
      8 C           4.1307   -0.4845   -1.2485 C.ar    1  UNL1        0.0000
      9 C           5.4778   -0.6470   -1.6950 C.ar    1  UNL1        0.0000
     10 C           6.3566   -0.5181   -0.6463 C.ar    1  UNL1        0.0000
     11 S           5.6025   -0.2071    0.8576 S.2     1  UNL1        0.0000
     12 C           4.0273   -0.2414    0.1012 C.ar    1  UNL1        0.0000
     13 C           2.6685   -0.0946    0.4543 C.ar    1  UNL1        0.0000
     14 C           2.2786    0.1686    1.8173 C.ar    1  UNL1        0.0000
     15 N           3.1119    0.2954    2.8370 N.ar    1  UNL1        0.0000
     16 S           2.0900    0.5856    4.1298 S.2     1  UNL1        0.0000
     17 N           0.6018    0.5441    3.3653 N.ar    1  UNL1        0.0000
     18 C           0.8416    0.3006    2.0611 C.ar    1  UNL1        0.0000
     19 C          -3.6535    0.2086   -0.0511 C.ar    1  UNL1        0.0000
     20 C          -4.6274    0.4397    0.9092 C.ar    1  UNL1        0.0000
     21 C          -5.8952    0.4062    0.2821 C.ar    1  UNL1        0.0000
     22 C          -5.6783    0.1555   -1.0504 C.ar    1  UNL1        0.0000
     23 N          -4.3257    0.0375   -1.2440 N.ar    1  UNL1        0.0000
     24 H          -1.1206    0.9005   -2.4479 H       1  UNL1        0.0000
     25 H          -1.2727   -1.5507   -2.0190 H       1  UNL1        0.0000
     26 H          -1.9892    0.4905    2.1446 H       1  UNL1        0.0000
     27 H           5.7732   -0.8449   -2.7174 H       1  UNL1        0.0000
     28 H           7.4352   -0.5923   -0.6850 H       1  UNL1        0.0000
     29 H          -4.4462    0.6159    1.9618 H       1  UNL1        0.0000
     30 H          -6.8584    0.5497    0.7543 H       1  UNL1        0.0000
     31 H          -6.3665    0.0505   -1.8783 H       1  UNL1        0.0000
     32 H          -3.9050   -0.1489   -2.1430 H       1  UNL1        0.0000
@<TRIPOS>BOND
     1     1     2    1
     2     2     3    2
     3     3     4    1
     4     4     5   ar
     5     5     6   ar
     6     6     7   ar
     7     7     8   ar
     8     8     9   ar
     9     9    10   ar
    10    10    11   ar
    11    11    12   ar
    12    12    13   ar
    13    13    14   ar
    14    14    15   ar
    15    15    16   ar
    16    16    17   ar
    17    17    18   ar
    18     2    19    1
    19    19    20   ar
    20    20    21   ar
    21    21    22   ar
    22    22    23   ar
    23     5     1    1
    24    13     6   ar
    25    18    14   ar
    26    23    19   ar
    27    18     4   ar
    28    12     8   ar
    29     1    24    1
    30     1    25    1
    31     3    26    1
    32     9    27    1
    33    10    28    1
    34    20    29    1
    35    21    30    1
    36    22    31    1
    37    23    32    1
