@<TRIPOS>MOLECULE
*****
 41 47 0 0 0
SMALL
GASTEIGER

@<TRIPOS>ATOM
      1 SI         -5.4554   -2.6162   -0.4037 Si      1  UNL1        0.0000
      2 C          -6.0184   -0.8514   -0.3529 C.2     1  UNL1        0.0000
      3 C          -4.9744   -0.0049   -0.2725 C.ar    1  UNL1        0.0000
      4 C          -5.1415    1.4256   -0.2191 C.ar    1  UNL1        0.0000
      5 C          -4.0676    2.2215   -0.1397 C.ar    1  UNL1        0.0000
      6 C          -2.6992    1.6684   -0.1049 C.ar    1  UNL1        0.0000
      7 C          -1.6154    2.6105   -0.0188 C.ar    1  UNL1        0.0000
      8 N          -1.7027    3.9542    0.0342 N.ar    1  UNL1        0.0000
      9 S          -0.1552    4.5394    0.1249 S.2     1  UNL1        0.0000
     10 N           0.7130    3.1263    0.1022 N.ar    1  UNL1        0.0000
     11 C          -0.1890    2.1318    0.0217 C.ar    1  UNL1        0.0000
     12 C           0.0595    0.7493   -0.0261 C.ar    1  UNL1        0.0000
     13 C          -1.0548   -0.1701   -0.1124 C.ar    1  UNL1        0.0000
     14 SI         -0.2352   -1.9738   -0.1535 Si      1  UNL1        0.0000
     15 C           1.4754   -1.2412   -0.0497 C.ar    1  UNL1        0.0000
     16 C           2.8165   -1.6049   -0.0078 C.ar    1  UNL1        0.0000
     17 C           3.5343   -0.4128    0.0730 C.ar    1  UNL1        0.0000
     18 N           2.6245    0.6343    0.0784 N.ar    1  UNL1        0.0000
     19 C           1.3632    0.1247    0.0031 C.ar    1  UNL1        0.0000
     20 C           4.9476   -0.1920    0.1426 C.ar    1  UNL1        0.0000
     21 C           5.6681    0.9858    0.2224 C.ar    1  UNL1        0.0000
     22 C           7.0454    0.6541    0.2674 C.ar    1  UNL1        0.0000
     23 C           7.1359   -0.7170    0.2142 C.ar    1  UNL1        0.0000
     24 N           5.8626   -1.2188    0.1390 N.ar    1  UNL1        0.0000
     25 C          -2.4109    0.2505   -0.1525 C.ar    1  UNL1        0.0000
     26 C          -3.6230   -0.6337   -0.2416 C.ar    1  UNL1        0.0000
     27 C          -3.6877   -1.9815   -0.3016 C.2     1  UNL1        0.0000
     28 H          -5.7320   -3.2770   -1.7015 H       1  UNL1        0.0000
     29 H          -5.8388   -3.3834    0.8053 H       1  UNL1        0.0000
     30 H          -7.0650   -0.5921   -0.3865 H       1  UNL1        0.0000
     31 H          -6.1411    1.8473   -0.2438 H       1  UNL1        0.0000
     32 H          -4.1937    3.2994   -0.0994 H       1  UNL1        0.0000
     33 H          -0.6383   -2.7508    1.0473 H       1  UNL1        0.0000
     34 H          -0.5320   -2.6457   -1.4453 H       1  UNL1        0.0000
     35 H           3.2332   -2.6025   -0.0321 H       1  UNL1        0.0000
     36 H           2.8551    1.6181    0.1298 H       1  UNL1        0.0000
     37 H           5.2570    1.9861    0.2464 H       1  UNL1        0.0000
     38 H           7.8777    1.3428    0.3316 H       1  UNL1        0.0000
     39 H           7.9917   -1.3783    0.2233 H       1  UNL1        0.0000
     40 H           5.6258   -2.1994    0.0881 H       1  UNL1        0.0000
     41 H          -2.9153   -2.7227   -0.3002 H       1  UNL1        0.0000
@<TRIPOS>BOND
     1     1     2    1
     2     2     3    2
     3     3     4   ar
     4     4     5   ar
     5     5     6   ar
     6     6     7   ar
     7     7     8   ar
     8     8     9   ar
     9     9    10   ar
    10    10    11   ar
    11    11    12   ar
    12    12    13   ar
    13    13    14    1
    14    14    15    1
    15    15    16   ar
    16    16    17   ar
    17    17    18   ar
    18    18    19   ar
    19    17    20    1
    20    20    21   ar
    21    21    22   ar
    22    22    23   ar
    23    23    24   ar
    24    13    25   ar
    25    25    26   ar
    26    26    27    2
    27    27     1    1
    28    26     3   ar
    29    25     6   ar
    30    11     7   ar
    31    12    19    1
    32    24    20   ar
    33    19    15   ar
    34     1    28    1
    35     1    29    1
    36     2    30    1
    37     4    31    1
    38     5    32    1
    39    14    33    1
    40    14    34    1
    41    16    35    1
    42    18    36    1
    43    21    37    1
    44    22    38    1
    45    23    39    1
    46    24    40    1
    47    27    41    1
