@<TRIPOS>MOLECULE
*****
 31 36 0 0 0
SMALL
GASTEIGER

@<TRIPOS>ATOM
      1 C          -5.7875   -1.4250    0.7799 C.ar    1  UNL1        0.0354
      2 C          -6.3911   -0.1918    0.7263 C.ar    1  UNL1       -0.0042
      3 S          -5.2041    1.0131    0.4880 S.2     1  UNL1       -0.0756
      4 C          -3.9624   -0.1840    0.4715 C.ar    1  UNL1        0.1103
      5 N          -4.4153   -1.4181    0.6357 N.ar    1  UNL1       -0.2473
      6 C          -2.5308    0.1072    0.2941 C.ar    1  UNL1        0.0358
      7 C          -1.5908   -0.9554    0.2964 C.ar    1  UNL1       -0.0421
      8 C          -0.1901   -0.8138    0.1365 C.ar    1  UNL1       -0.0140
      9 C           0.6064   -1.9542    0.1612 C.ar    1  UNL1       -0.0533
     10 C           1.9908   -1.8725    0.0086 C.ar    1  UNL1       -0.0518
     11 C           2.6216   -0.6215   -0.1758 C.ar    1  UNL1        0.0042
     12 C           4.0167   -0.3239   -0.3499 C.ar    1  UNL1        0.0341
     13 S           5.4813   -1.2826   -0.4124 S.2     1  UNL1       -0.0955
     14 C           6.4111    0.1365   -0.6440 C.ar    1  UNL1       -0.0227
     15 C           5.6653    1.2915   -0.6753 C.ar    1  UNL1       -0.0403
     16 C           4.2773    1.0039   -0.5029 C.ar    1  UNL1        0.0276
     17 S           2.8317    1.9546   -0.4417 S.2     1  UNL1       -0.0870
     18 C           1.8422    0.5438   -0.2046 C.ar    1  UNL1        0.0308
     19 C           0.4271    0.4587   -0.0486 C.ar    1  UNL1        0.0246
     20 C          -0.4598    1.5818   -0.0621 C.ar    1  UNL1        0.1093
     21 N          -0.1251    2.8751   -0.2196 N.ar    1  UNL1       -0.1901
     22 S          -1.5059    3.7696   -0.1599 S.2     1  UNL1        0.1165
     23 N          -2.6208    2.5784    0.0695 N.ar    1  UNL1       -0.1901
     24 C          -1.9700    1.4020    0.1129 C.ar    1  UNL1        0.1102
     25 H          -6.3018   -2.3675    0.9229 H       1  UNL1        0.0835
     26 H          -7.4400    0.0511    0.8130 H       1  UNL1        0.0709
     27 H          -1.9896   -1.9658    0.4338 H       1  UNL1        0.0631
     28 H           0.1639   -2.9401    0.3008 H       1  UNL1        0.0624
     29 H           2.5861   -2.7833    0.0326 H       1  UNL1        0.0624
     30 H           7.4844    0.0498   -0.7480 H       1  UNL1        0.0694
     31 H           6.0792    2.2824   -0.8124 H       1  UNL1        0.0634
@<TRIPOS>BOND
     1     1     2   ar
     2     2     3   ar
     3     3     4   ar
     4     4     5   ar
     5     4     6    1
     6     6     7   ar
     7     7     8   ar
     8     8     9   ar
     9     9    10   ar
    10    10    11   ar
    11    11    12   ar
    12    12    13   ar
    13    13    14   ar
    14    14    15   ar
    15    15    16   ar
    16    16    17   ar
    17    17    18   ar
    18    18    19   ar
    19    19    20   ar
    20    20    21   ar
    21    21    22   ar
    22    22    23   ar
    23    23    24   ar
    24     5     1   ar
    25    24     6   ar
    26    19     8   ar
    27    24    20   ar
    28    18    11   ar
    29    16    12   ar
    30     1    25    1
    31     2    26    1
    32     7    27    1
    33     9    28    1
    34    10    29    1
    35    14    30    1
    36    15    31    1
