@<TRIPOS>MOLECULE
*****
 38 44 0 0 0
SMALL
GASTEIGER

@<TRIPOS>ATOM
      1 C           6.8411    0.3948    0.3228 C.ar    1  UNL1        0.0354
      2 C           7.1417   -0.9476    0.3507 C.ar    1  UNL1       -0.0042
      3 S           5.7017   -1.8618    0.2115 S.2     1  UNL1       -0.0756
      4 C           4.7886   -0.4051    0.0712 C.ar    1  UNL1        0.1103
      5 N           5.5025    0.7015    0.1768 N.ar    1  UNL1       -0.2473
      6 C           3.3325   -0.4052   -0.0329 C.ar    1  UNL1        0.0359
      7 C           2.5571    0.5424    0.6534 C.ar    1  UNL1       -0.0407
      8 C           1.1417    0.6148    0.6035 C.ar    1  UNL1        0.0037
      9 C           0.5303    1.6004    1.3697 C.ar    1  UNL1        0.0361
     10 N          -0.7936    1.8168    1.4618 N.ar    1  UNL1       -0.2523
     11 C          -1.6021    1.0084    0.7349 C.ar    1  UNL1        0.0961
     12 C          -2.9671    1.3489    0.9277 C.ar    1  UNL1        0.0734
     13 N          -3.5672    2.3207    1.7035 N.ar    1  UNL1       -0.3590
     14 C          -4.9394    2.2673    1.5642 C.ar    1  UNL1        0.0028
     15 C          -5.2525    1.2493    0.6824 C.ar    1  UNL1       -0.0360
     16 C          -4.0212    0.7134    0.3170 C.ar    1  UNL1        0.0109
     17 C          -3.6821   -0.3395   -0.5514 C.ar    1  UNL1        0.0093
     18 C          -4.5279   -1.1203   -1.2766 C.ar    1  UNL1        0.0101
     19 N          -3.6953   -1.9766   -1.9520 N.ar    1  UNL1       -0.3659
     20 C          -2.3705   -1.7064   -1.6367 C.ar    1  UNL1        0.0101
     21 C          -2.3155   -0.6678   -0.7299 C.ar    1  UNL1        0.0099
     22 C          -1.1566   -0.0518   -0.1197 C.ar    1  UNL1        0.0214
     23 C           0.2999   -0.2521   -0.1708 C.ar    1  UNL1        0.0216
     24 C           1.0752   -1.2371   -0.9137 C.ar    1  UNL1        0.1089
     25 N           0.5949   -2.1924   -1.7239 N.ar    1  UNL1       -0.1901
     26 S           1.8559   -3.0446   -2.3465 S.2     1  UNL1        0.1165
     27 N           3.1166   -2.2696   -1.6256 N.ar    1  UNL1       -0.1901
     28 C           2.6030   -1.3040   -0.8434 C.ar    1  UNL1        0.1102
     29 H           7.5616    1.1979    0.4072 H       1  UNL1        0.0835
     30 H           8.1068   -1.4217    0.4551 H       1  UNL1        0.0709
     31 H           3.0996    1.2643    1.2720 H       1  UNL1        0.0631
     32 H           1.1184    2.2889    1.9755 H       1  UNL1        0.0836
     33 H          -3.0450    2.9661    2.2818 H       1  UNL1        0.1654
     34 H          -5.5685    2.9592    2.1063 H       1  UNL1        0.0807
     35 H          -6.2429    0.9559    0.3650 H       1  UNL1        0.0639
     36 H          -5.6024   -1.1588   -1.3849 H       1  UNL1        0.0813
     37 H          -3.9952   -2.7022   -2.5895 H       1  UNL1        0.1648
     38 H          -1.6243   -2.3128   -2.1167 H       1  UNL1        0.0813
@<TRIPOS>BOND
     1     1     2   ar
     2     2     3   ar
     3     3     4   ar
     4     4     5   ar
     5     4     6    1
     6     6     7   ar
     7     7     8   ar
     8     8     9   ar
     9     9    10   ar
    10    10    11   ar
    11    11    12   ar
    12    12    13   ar
    13    13    14   ar
    14    14    15   ar
    15    15    16   ar
    16    16    17   ar
    17    17    18   ar
    18    18    19   ar
    19    19    20   ar
    20    20    21   ar
    21    21    22   ar
    22    22    23   ar
    23    23    24   ar
    24    24    25   ar
    25    25    26   ar
    26    26    27   ar
    27    27    28   ar
    28     5     1   ar
    29    28     6   ar
    30    23     8   ar
    31    28    24   ar
    32    22    11   ar
    33    16    12   ar
    34    21    17   ar
    35     1    29    1
    36     2    30    1
    37     7    31    1
    38     9    32    1
    39    13    33    1
    40    14    34    1
    41    15    35    1
    42    18    36    1
    43    19    37    1
    44    20    38    1
