@<TRIPOS>MOLECULE
*****
 40 46 0 0 0
SMALL
GASTEIGER

@<TRIPOS>ATOM
      1 C           6.7793   -2.2012    0.5204 C.ar    1  UNL1        0.0354
      2 C           7.3447   -1.0802    1.0834 C.ar    1  UNL1       -0.0042
      3 S           6.1610    0.1465    1.2327 S.2     1  UNL1       -0.0756
      4 C           4.9947   -0.8869    0.4933 C.ar    1  UNL1        0.1103
      5 N           5.4386   -2.0980    0.2074 N.ar    1  UNL1       -0.2473
      6 C           3.6036   -0.4833    0.3144 C.ar    1  UNL1        0.0359
      7 C           2.5509   -1.3939    0.5000 C.ar    1  UNL1       -0.0407
      8 C           1.1763   -1.0758    0.3404 C.ar    1  UNL1        0.0037
      9 C           0.2515   -2.0885    0.5053 C.ar    1  UNL1        0.0361
     10 N          -1.0841   -1.9649    0.3622 N.ar    1  UNL1       -0.2537
     11 C          -1.6447   -0.7743    0.0969 C.ar    1  UNL1        0.0800
     12 C          -3.0903   -0.7629   -0.0276 C.ar    1  UNL1        0.0087
     13 C          -3.8430   -1.9563    0.0661 C.ar    1  UNL1       -0.0520
     14 C          -5.2404   -1.9898   -0.0540 C.ar    1  UNL1       -0.0611
     15 C          -5.9563   -0.8189   -0.2719 C.ar    1  UNL1       -0.0611
     16 C          -5.2778    0.3893   -0.3668 C.ar    1  UNL1       -0.0533
     17 C          -3.8654    0.4141   -0.2468 C.ar    1  UNL1       -0.0067
     18 C          -3.0440    1.5521   -0.2877 C.ar    1  UNL1        0.0078
     19 C          -3.4777    2.8512   -0.4035 C.ar    1  UNL1        0.0100
     20 N          -2.3681    3.6515   -0.3184 N.ar    1  UNL1       -0.3659
     21 C          -1.2465    2.8741   -0.1321 C.ar    1  UNL1        0.0101
     22 C          -1.6166    1.5507   -0.1819 C.ar    1  UNL1        0.0098
     23 C          -0.7950    0.3851   -0.0376 C.ar    1  UNL1        0.0199
     24 C           0.6644    0.2076    0.0056 C.ar    1  UNL1        0.0216
     25 C           1.7324    1.1505   -0.3054 C.ar    1  UNL1        0.1089
     26 N           1.5896    2.3864   -0.8111 N.ar    1  UNL1       -0.1901
     27 S           3.0825    3.0505   -1.0092 S.2     1  UNL1        0.1165
     28 N           4.0281    1.8078   -0.4866 N.ar    1  UNL1       -0.1901
     29 C           3.2114    0.7971   -0.1386 C.ar    1  UNL1        0.1102
     30 H           7.3004   -3.1296    0.3201 H       1  UNL1        0.0835
     31 H           8.3629   -0.9302    1.4113 H       1  UNL1        0.0709
     32 H           2.8247   -2.4156    0.7808 H       1  UNL1        0.0631
     33 H           0.5616   -3.1031    0.7514 H       1  UNL1        0.0836
     34 H          -3.3291   -2.9030    0.2351 H       1  UNL1        0.0624
     35 H          -5.7625   -2.9403    0.0243 H       1  UNL1        0.0618
     36 H          -7.0383   -0.8482   -0.3636 H       1  UNL1        0.0618
     37 H          -5.8374    1.3050   -0.5305 H       1  UNL1        0.0624
     38 H          -4.4611    3.2878   -0.5098 H       1  UNL1        0.0813
     39 H          -2.3731    4.6632   -0.3422 H       1  UNL1        0.1648
     40 H          -0.3075    3.3745    0.0344 H       1  UNL1        0.0813
@<TRIPOS>BOND
     1     1     2   ar
     2     2     3   ar
     3     3     4   ar
     4     4     5   ar
     5     4     6    1
     6     6     7   ar
     7     7     8   ar
     8     8     9   ar
     9     9    10   ar
    10    10    11   ar
    11    11    12   ar
    12    12    13   ar
    13    13    14   ar
    14    14    15   ar
    15    15    16   ar
    16    16    17   ar
    17    17    18   ar
    18    18    19   ar
    19    19    20   ar
    20    20    21   ar
    21    21    22   ar
    22    22    23   ar
    23    23    24   ar
    24    24    25   ar
    25    25    26   ar
    26    26    27   ar
    27    27    28   ar
    28    28    29   ar
    29     5     1   ar
    30    29     6   ar
    31    24     8   ar
    32    29    25   ar
    33    23    11   ar
    34    17    12   ar
    35    22    18   ar
    36     1    30    1
    37     2    31    1
    38     7    32    1
    39     9    33    1
    40    13    34    1
    41    14    35    1
    42    15    36    1
    43    16    37    1
    44    19    38    1
    45    20    39    1
    46    21    40    1
