@<TRIPOS>MOLECULE
*****
 37 42 0 0 0
SMALL
GASTEIGER

@<TRIPOS>ATOM
      1 C           6.0472    1.1624   -0.7684 C.ar    1  UNL1        0.0356
      2 C           6.8834    0.2107   -0.2286 C.ar    1  UNL1       -0.0041
      3 S           5.9499   -1.0342    0.4881 S.2     1  UNL1       -0.0727
      4 C           4.5093   -0.2129    0.0260 C.ar    1  UNL1        0.1433
      5 N           4.6960    0.9197   -0.6225 N.ar    1  UNL1       -0.2442
      6 C           3.1920   -0.7149    0.3199 C.ar    1  UNL1        0.1626
      7 C           2.8055   -1.8688    0.9818 C.ar    1  UNL1        0.0123
      8 C           1.3950   -1.8843    0.9979 C.ar    1  UNL1        0.1102
      9 N           0.5602   -2.7997    1.5258 N.ar    1  UNL1       -0.2511
     10 C          -0.7493   -2.4965    1.3592 C.ar    1  UNL1        0.0368
     11 C          -1.3116   -1.3659    0.7157 C.ar    1  UNL1        0.0135
     12 C          -2.7193   -1.1447    0.5966 C.ar    1  UNL1        0.0101
     13 C          -3.6911   -2.0327    1.1094 C.ar    1  UNL1        0.0359
     14 N          -5.0334   -1.8891    1.0343 N.ar    1  UNL1       -0.2626
     15 C          -5.4692   -0.7923    0.4095 C.ar    1  UNL1        0.0282
     16 C          -4.6208    0.1554   -0.1368 C.ar    1  UNL1       -0.0353
     17 C          -3.2119    0.0106   -0.0614 C.ar    1  UNL1       -0.0067
     18 C          -2.2969    0.9720   -0.6159 C.ar    1  UNL1       -0.0094
     19 C          -2.7407    2.1472   -1.2855 C.ar    1  UNL1       -0.0534
     20 C          -1.8707    3.0907   -1.8295 C.ar    1  UNL1       -0.0611
     21 C          -0.5125    2.8922   -1.7231 C.ar    1  UNL1       -0.0611
     22 C          -0.0388    1.7532   -1.0744 C.ar    1  UNL1       -0.0533
     23 C          -0.8941    0.7676   -0.5064 C.ar    1  UNL1       -0.0059
     24 C          -0.4147   -0.4125    0.1659 C.ar    1  UNL1        0.0363
     25 C           0.9603   -0.7425    0.3474 C.ar    1  UNL1        0.1622
     26 O           2.0563   -0.0398   -0.0601 O.2     1  UNL1       -0.4505
     27 H           6.3709    2.0593   -1.2829 H       1  UNL1        0.0835
     28 H           7.9635    0.1884   -0.2215 H       1  UNL1        0.0709
     29 H           3.4543   -2.6196    1.4077 H       1  UNL1        0.0678
     30 H          -1.3817   -3.2632    1.8009 H       1  UNL1        0.0836
     31 H          -3.4189   -2.9459    1.6301 H       1  UNL1        0.0836
     32 H          -6.5479   -0.6809    0.3514 H       1  UNL1        0.0830
     33 H          -5.0909    1.0038   -0.6195 H       1  UNL1        0.0639
     34 H          -3.7983    2.3636   -1.4037 H       1  UNL1        0.0624
     35 H          -2.2604    3.9719   -2.3314 H       1  UNL1        0.0618
     36 H           0.1872    3.6123   -2.1386 H       1  UNL1        0.0618
     37 H           1.0421    1.6596   -1.0265 H       1  UNL1        0.0624
@<TRIPOS>BOND
     1     1     2   ar
     2     2     3   ar
     3     3     4   ar
     4     4     5   ar
     5     4     6    1
     6     6     7   ar
     7     7     8   ar
     8     8     9   ar
     9     9    10   ar
    10    10    11   ar
    11    11    12   ar
    12    12    13   ar
    13    13    14   ar
    14    14    15   ar
    15    15    16   ar
    16    16    17   ar
    17    17    18   ar
    18    18    19   ar
    19    19    20   ar
    20    20    21   ar
    21    21    22   ar
    22    22    23   ar
    23    23    24   ar
    24    24    25   ar
    25    25    26   ar
    26     5     1   ar
    27    26     6   ar
    28    25     8   ar
    29    24    11   ar
    30    17    12   ar
    31    23    18   ar
    32     1    27    1
    33     2    28    1
    34     7    29    1
    35    10    30    1
    36    13    31    1
    37    15    32    1
    38    16    33    1
    39    19    34    1
    40    20    35    1
    41    21    36    1
    42    22    37    1
