@<TRIPOS>MOLECULE
*****
 29 34 0 0 0
SMALL
GASTEIGER

@<TRIPOS>ATOM
      1 C          -5.4792   -1.3392    1.0401 C.ar    1  UNL1        0.0354
      2 C          -6.1280   -0.5205    0.1474 C.ar    1  UNL1       -0.0042
      3 S          -4.9793    0.3994   -0.7199 S.2     1  UNL1       -0.0756
      4 C          -3.6919   -0.3511    0.1486 C.ar    1  UNL1        0.1104
      5 N          -4.1031   -1.2413    1.0384 N.ar    1  UNL1       -0.2473
      6 C          -2.2638   -0.0514   -0.0579 C.ar    1  UNL1        0.0388
      7 C          -1.2952   -0.7488    0.7327 C.ar    1  UNL1       -0.0068
      8 C           0.0615   -0.4791    0.5521 C.ar    1  UNL1        0.1406
      9 O           1.1344   -1.0513    1.2209 O.2     1  UNL1       -0.4520
     10 C           2.1805   -0.4215    0.6459 C.ar    1  UNL1        0.1680
     11 C           1.8956    0.4827   -0.3089 C.ar    1  UNL1        0.0966
     12 N           3.1110    0.9523   -0.7063 N.ar    1  UNL1       -0.3506
     13 C           4.1102    0.3280    0.0110 C.ar    1  UNL1        0.0577
     14 C           5.5163    0.2564    0.1866 C.ar    1  UNL1       -0.0306
     15 C           5.8055   -0.6808    1.1760 C.ar    1  UNL1       -0.0216
     16 S           4.4115   -1.4623    1.8826 S.2     1  UNL1       -0.0914
     17 C           3.4917   -0.5345    0.8574 C.ar    1  UNL1        0.0798
     18 C           0.5173    0.4389   -0.3634 C.ar    1  UNL1        0.0723
     19 C          -0.3378    1.1789   -1.1898 C.ar    1  UNL1        0.1133
     20 N           0.0839    2.0655   -2.0754 N.ar    1  UNL1       -0.1900
     21 S          -1.3583    2.6046   -2.7367 S.2     1  UNL1        0.1165
     22 N          -2.4568    1.6895   -1.8706 N.ar    1  UNL1       -0.1901
     23 C          -1.7688    0.9061   -1.0115 C.ar    1  UNL1        0.1104
     24 H          -5.9613   -2.0310    1.7200 H       1  UNL1        0.0835
     25 H          -7.1888   -0.4223   -0.0307 H       1  UNL1        0.0709
     26 H          -1.6065   -1.4847    1.4707 H       1  UNL1        0.0662
     27 H           3.2548    1.6544   -1.4214 H       1  UNL1        0.1660
     28 H           6.2613    0.8285   -0.3506 H       1  UNL1        0.0644
     29 H           6.7833   -0.9654    1.5406 H       1  UNL1        0.0694
@<TRIPOS>BOND
     1     1     2   ar
     2     2     3   ar
     3     3     4   ar
     4     4     5   ar
     5     4     6    1
     6     6     7   ar
     7     7     8   ar
     8     8     9   ar
     9     9    10   ar
    10    10    11   ar
    11    11    12   ar
    12    12    13   ar
    13    13    14   ar
    14    14    15   ar
    15    15    16   ar
    16    16    17   ar
    17    11    18   ar
    18    18    19   ar
    19    19    20   ar
    20    20    21   ar
    21    21    22   ar
    22    22    23   ar
    23     5     1   ar
    24    23     6   ar
    25    18     8   ar
    26    23    19   ar
    27    17    10   ar
    28    17    13   ar
    29     1    24    1
    30     2    25    1
    31     7    26    1
    32    12    27    1
    33    14    28    1
    34    15    29    1
