@<TRIPOS>MOLECULE
*****
 33 38 0 0 0
SMALL
GASTEIGER

@<TRIPOS>ATOM
      1 C           6.6494    0.3854   -1.0608 C.ar    1  UNL1        0.0355
      2 C           7.0096   -0.0251    0.2036 C.ar    1  UNL1       -0.0042
      3 S           5.6018   -0.3380    1.1290 S.2     1  UNL1       -0.0742
      4 C           4.6280    0.0960   -0.2219 C.ar    1  UNL1        0.1244
      5 N           5.2914    0.4536   -1.3008 N.ar    1  UNL1       -0.2459
      6 C           3.1905    0.0758   -0.1930 C.ar    1  UNL1        0.0758
      7 C           2.3143    0.4055   -1.2223 C.ar    1  UNL1        0.0087
      8 C           1.0431    0.2132   -0.6632 C.ar    1  UNL1        0.1544
      9 O          -0.2522    0.3305   -1.0521 O.2     1  UNL1       -0.4525
     10 C          -0.9798   -0.0351    0.0502 C.ar    1  UNL1        0.1490
     11 C          -0.1723   -0.3815    1.1289 C.ar    1  UNL1        0.0629
     12 C          -0.7694   -0.7756    2.3212 C.ar    1  UNL1        0.0410
     13 N          -2.1263   -0.8209    2.4287 N.ar    1  UNL1       -0.2541
     14 C          -2.9192   -0.4890    1.3943 C.ar    1  UNL1        0.0752
     15 C          -4.3367   -0.5551    1.5641 C.ar    1  UNL1       -0.0349
     16 C          -5.3235   -0.2428    0.5855 C.ar    1  UNL1       -0.0490
     17 C          -4.7170    0.1484   -0.5977 C.ar    1  UNL1        0.0207
     18 C          -5.3276    0.5245   -1.7629 C.ar    1  UNL1        0.0994
     19 O          -4.3731    0.8360   -2.6943 O.2     1  UNL1       -0.4698
     20 C          -3.1473    0.6541   -2.1092 C.ar    1  UNL1        0.1001
     21 C          -3.3142    0.2306   -0.8170 C.ar    1  UNL1        0.0326
     22 C          -2.3610   -0.0784    0.1506 C.ar    1  UNL1        0.0540
     23 C           1.1297   -0.2041    0.6161 C.ar    1  UNL1        0.0949
     24 N           2.4604   -0.2949    0.9246 N.ar    1  UNL1       -0.3495
     25 H           7.3399    0.6493   -1.8527 H       1  UNL1        0.0835
     26 H           8.0010   -0.1516    0.6138 H       1  UNL1        0.0709
     27 H           2.5747    0.7331   -2.2190 H       1  UNL1        0.0676
     28 H          -0.2109   -1.0603    3.2055 H       1  UNL1        0.0837
     29 H          -4.6930   -0.8782    2.5448 H       1  UNL1        0.0639
     30 H          -6.3862   -0.3106    0.7685 H       1  UNL1        0.0625
     31 H          -6.3514    0.6250   -2.0943 H       1  UNL1        0.1035
     32 H          -2.2949    0.8665   -2.7397 H       1  UNL1        0.1036
     33 H           2.8226   -0.5861    1.8240 H       1  UNL1        0.1661
@<TRIPOS>BOND
     1     1     2   ar
     2     2     3   ar
     3     3     4   ar
     4     4     5   ar
     5     4     6    1
     6     6     7   ar
     7     7     8   ar
     8     8     9   ar
     9     9    10   ar
    10    10    11   ar
    11    11    12   ar
    12    12    13   ar
    13    13    14   ar
    14    14    15   ar
    15    15    16   ar
    16    16    17   ar
    17    17    18   ar
    18    18    19   ar
    19    19    20   ar
    20    20    21   ar
    21    21    22   ar
    22    11    23   ar
    23    23    24   ar
    24     5     1   ar
    25    24     6   ar
    26    23     8   ar
    27    22    10   ar
    28    22    14   ar
    29    21    17   ar
    30     1    25    1
    31     2    26    1
    32     7    27    1
    33    12    28    1
    34    15    29    1
    35    16    30    1
    36    18    31    1
    37    20    32    1
    38    24    33    1
