@<TRIPOS>MOLECULE
*****
 41 46 0 0 0
SMALL
GASTEIGER

@<TRIPOS>ATOM
      1 C          -7.8419   -0.6464   -0.1714 C.ar    1  UNL1        0.0354
      2 C          -7.9621   -0.8297   -1.5290 C.ar    1  UNL1       -0.0042
      3 S          -6.4188   -0.7310   -2.2595 S.2     1  UNL1       -0.0757
      4 C          -5.6971   -0.4455   -0.7133 C.ar    1  UNL1        0.1089
      5 N          -6.5583   -0.4322    0.2874 N.ar    1  UNL1       -0.2473
      6 C          -4.2535   -0.2559   -0.5854 C.ar    1  UNL1        0.0179
      7 C          -3.3545    0.1201   -1.6218 C.ar    1  UNL1       -0.0508
      8 C          -1.9343    0.3005   -1.4494 C.ar    1  UNL1       -0.0527
      9 C          -1.2426    0.1225   -0.2235 C.ar    1  UNL1       -0.0071
     10 C           0.1924    0.2976   -0.0499 C.ar    1  UNL1       -0.0172
     11 C           1.0106   -0.7670    0.3555 C.ar    1  UNL1       -0.0534
     12 C           2.3907   -0.5963    0.5123 C.ar    1  UNL1       -0.0529
     13 C           2.9889    0.6443    0.2627 C.ar    1  UNL1       -0.0102
     14 C           2.1780    1.7100   -0.1453 C.ar    1  UNL1       -0.0529
     15 C           0.7982    1.5368   -0.3025 C.ar    1  UNL1       -0.0534
     16 C           4.4246    0.8224    0.4264 C.ar    1  UNL1        0.0336
     17 S           5.0912    1.9653    1.5334 S.2     1  UNL1       -0.0949
     18 C           6.7154    1.5441    1.1415 C.ar    1  UNL1       -0.0155
     19 C           6.6782    0.5749    0.2004 C.ar    1  UNL1       -0.0032
     20 C           7.6834   -0.1412   -0.4922 C.ar    1  UNL1       -0.0465
     21 C           7.1509   -1.0637   -1.4002 C.ar    1  UNL1       -0.0231
     22 S           5.3961   -1.1423   -1.4951 S.2     1  UNL1       -0.0955
     23 C           5.4208    0.1454   -0.2261 C.ar    1  UNL1        0.0341
     24 C          -2.1418   -0.2378    0.7854 C.ar    1  UNL1        0.0282
     25 C          -1.8714   -0.4672    2.1107 C.ar    1  UNL1        0.1000
     26 O          -3.0224   -0.7950    2.7679 O.2     1  UNL1       -0.4698
     27 C          -4.0406   -0.7606    1.8568 C.ar    1  UNL1        0.1000
     28 C          -3.5559   -0.4133    0.6199 C.ar    1  UNL1        0.0301
     29 H          -8.6619   -0.6598    0.5363 H       1  UNL1        0.0835
     30 H          -8.8556   -1.0123   -2.1079 H       1  UNL1        0.0709
     31 H          -3.7426    0.2986   -2.6255 H       1  UNL1        0.0625
     32 H          -1.3573    0.5850   -2.3319 H       1  UNL1        0.0624
     33 H           0.5783   -1.7478    0.5465 H       1  UNL1        0.0624
     34 H           2.9926   -1.4435    0.8346 H       1  UNL1        0.0624
     35 H           2.6131    2.6859   -0.3506 H       1  UNL1        0.0624
     36 H           0.1947    2.3865   -0.6168 H       1  UNL1        0.0624
     37 H           7.5571    2.0278    1.6165 H       1  UNL1        0.0700
     38 H           8.7498   -0.0090   -0.3562 H       1  UNL1        0.0629
     39 H           7.7066   -1.7283   -2.0477 H       1  UNL1        0.0694
     40 H          -0.9800   -0.4448    2.7218 H       1  UNL1        0.1036
     41 H          -5.0190   -0.9972    2.2521 H       1  UNL1        0.1036
@<TRIPOS>BOND
     1     1     2   ar
     2     2     3   ar
     3     3     4   ar
     4     4     5   ar
     5     4     6    1
     6     6     7   ar
     7     7     8   ar
     8     8     9   ar
     9     9    10    1
    10    10    11   ar
    11    11    12   ar
    12    12    13   ar
    13    13    14   ar
    14    14    15   ar
    15    13    16    1
    16    16    17   ar
    17    17    18   ar
    18    18    19   ar
    19    19    20   ar
    20    20    21   ar
    21    21    22   ar
    22    22    23   ar
    23     9    24   ar
    24    24    25   ar
    25    25    26   ar
    26    26    27   ar
    27    27    28   ar
    28     5     1   ar
    29    28     6   ar
    30    15    10   ar
    31    23    16   ar
    32    28    24   ar
    33    23    19   ar
    34     1    29    1
    35     2    30    1
    36     7    31    1
    37     8    32    1
    38    11    33    1
    39    12    34    1
    40    14    35    1
    41    15    36    1
    42    18    37    1
    43    20    38    1
    44    21    39    1
    45    25    40    1
    46    27    41    1
