@<TRIPOS>MOLECULE
*****
 40 44 0 0 0
SMALL
GASTEIGER

@<TRIPOS>ATOM
      1 C           8.4549   -0.2910    0.5448 C.ar    1  UNL1        0.0354
      2 C           8.6467   -1.2290   -0.4425 C.ar    1  UNL1       -0.0042
      3 S           7.1404   -1.6474   -1.1360 S.2     1  UNL1       -0.0756
      4 C           6.3359   -0.5487   -0.0720 C.ar    1  UNL1        0.1096
      5 N           7.1458    0.0925    0.7527 N.ar    1  UNL1       -0.2473
      6 C           4.8764   -0.3573   -0.0970 C.ar    1  UNL1        0.0252
      7 C           4.2778    0.5485    0.7839 C.ar    1  UNL1       -0.0485
      8 C           2.8939    0.7430    0.7739 C.ar    1  UNL1       -0.0336
      9 C           2.1022    0.0272   -0.1229 C.ar    1  UNL1        0.0891
     10 N           2.6611   -0.8608   -0.9900 N.ar    1  UNL1       -0.2528
     11 C           4.0107   -1.0272   -0.9556 C.ar    1  UNL1        0.0380
     12 C           0.6290    0.1890   -0.1828 C.ar    1  UNL1        0.0891
     13 C          -0.1619   -0.5263   -1.0829 C.ar    1  UNL1       -0.0336
     14 C          -1.5450   -0.3333   -1.0947 C.ar    1  UNL1       -0.0505
     15 C          -2.1375    0.5677   -0.2086 C.ar    1  UNL1        0.0009
     16 C          -1.2739    1.2395    0.6515 C.ar    1  UNL1        0.0360
     17 N           0.0731    1.0763    0.6868 N.ar    1  UNL1       -0.2528
     18 C          -3.5707    0.8105   -0.1937 C.ar    1  UNL1       -0.0073
     19 C          -4.1788    2.0753   -0.4288 C.ar    1  UNL1       -0.0533
     20 C          -5.5995    2.3150   -0.4172 C.ar    1  UNL1       -0.0605
     21 C          -6.5703    1.3204   -0.1649 C.ar    1  UNL1       -0.0526
     22 C          -5.9603    0.0961    0.0694 C.ar    1  UNL1       -0.0000
     23 C          -6.6061   -1.0769    0.3619 C.ar    1  UNL1        0.0094
     24 N          -5.6315   -2.0360    0.5394 N.ar    1  UNL1       -0.3659
     25 C          -4.3789   -1.4842    0.3636 C.ar    1  UNL1        0.0100
     26 C          -4.5542   -0.1556    0.0575 C.ar    1  UNL1        0.0071
     27 H           9.2385    0.1507    1.1485 H       1  UNL1        0.0835
     28 H           9.5719   -1.6741   -0.7784 H       1  UNL1        0.0709
     29 H           4.8857    1.1133    1.4888 H       1  UNL1        0.0625
     30 H           2.4443    1.4508    1.4650 H       1  UNL1        0.0640
     31 H           4.3660   -1.7533   -1.6814 H       1  UNL1        0.0836
     32 H           0.2898   -1.2294   -1.7768 H       1  UNL1        0.0640
     33 H          -2.1539   -0.8866   -1.8062 H       1  UNL1        0.0625
     34 H          -1.6558    1.9560    1.3755 H       1  UNL1        0.0836
     35 H          -3.5342    2.9289   -0.6466 H       1  UNL1        0.0624
     36 H          -5.9438    3.3302   -0.6179 H       1  UNL1        0.0618
     37 H          -7.6336    1.5101   -0.1554 H       1  UNL1        0.0624
     38 H          -7.6529   -1.3263    0.4687 H       1  UNL1        0.0813
     39 H          -5.8081   -3.0039    0.7750 H       1  UNL1        0.1648
     40 H          -3.4932   -2.0939    0.4804 H       1  UNL1        0.0813
@<TRIPOS>BOND
     1     1     2   ar
     2     2     3   ar
     3     3     4   ar
     4     4     5   ar
     5     4     6    1
     6     6     7   ar
     7     7     8   ar
     8     8     9   ar
     9     9    10   ar
    10    10    11   ar
    11     9    12    1
    12    12    13   ar
    13    13    14   ar
    14    14    15   ar
    15    15    16   ar
    16    16    17   ar
    17    15    18    1
    18    18    19   ar
    19    19    20   ar
    20    20    21   ar
    21    21    22   ar
    22    22    23   ar
    23    23    24   ar
    24    24    25   ar
    25    25    26   ar
    26     5     1   ar
    27    11     6   ar
    28    17    12   ar
    29    26    18   ar
    30    26    22   ar
    31     1    27    1
    32     2    28    1
    33     7    29    1
    34     8    30    1
    35    11    31    1
    36    13    32    1
    37    14    33    1
    38    16    34    1
    39    19    35    1
    40    20    36    1
    41    21    37    1
    42    23    38    1
    43    24    39    1
    44    25    40    1
