@<TRIPOS>MOLECULE
*****
 35 39 0 0 0
SMALL
GASTEIGER

@<TRIPOS>ATOM
      1 C           7.7960   -0.3375    0.0525 C.ar    1  UNL1        0.0355
      2 C           7.7480    0.9187   -0.5074 C.ar    1  UNL1       -0.0042
      3 S           6.1165    1.3890   -0.7235 S.2     1  UNL1       -0.0752
      4 C           5.5942   -0.1128   -0.0571 C.ar    1  UNL1        0.1148
      5 N           6.5718   -0.9223    0.3086 N.ar    1  UNL1       -0.2468
      6 C           4.2087   -0.4947    0.1054 C.ar    1  UNL1        0.0449
      7 C           3.7609   -1.7050    0.6066 C.ar    1  UNL1       -0.0443
      8 C           2.3392   -1.7986    0.6496 C.ar    1  UNL1       -0.0462
      9 C           1.7274   -0.6601    0.1669 C.ar    1  UNL1        0.0235
     10 S           2.8819    0.5155   -0.2961 S.2     1  UNL1       -0.0861
     11 C           0.3079   -0.3661    0.0725 C.ar    1  UNL1        0.0350
     12 C          -0.5461   -0.3396    1.1731 C.ar    1  UNL1        0.0387
     13 N          -1.8922   -0.0851    1.1747 N.ar    1  UNL1       -0.2521
     14 C          -2.5864    0.1752    0.0115 C.ar    1  UNL1        0.0991
     15 C          -4.0279    0.4389    0.1214 C.ar    1  UNL1        0.0025
     16 C          -4.5489    1.0378    1.2855 C.ar    1  UNL1       -0.0525
     17 C          -5.9151    1.2993    1.4295 C.ar    1  UNL1       -0.0611
     18 C          -6.7983    0.9605    0.4105 C.ar    1  UNL1       -0.0617
     19 C          -6.3156    0.3571   -0.7463 C.ar    1  UNL1       -0.0611
     20 C          -4.9473    0.0968   -0.8861 C.ar    1  UNL1       -0.0525
     21 C          -1.8323    0.1814   -1.2002 C.ar    1  UNL1        0.1263
     22 N          -2.2695    0.4281   -2.4502 N.ar    1  UNL1       -0.1886
     23 S          -0.9686    0.2932   -3.4622 S.2     1  UNL1        0.1166
     24 N           0.2214   -0.0876   -2.3803 N.ar    1  UNL1       -0.1900
     25 C          -0.3423   -0.1049   -1.1580 C.ar    1  UNL1        0.1116
     26 H           8.7025   -0.8780    0.2967 H       1  UNL1        0.0835
     27 H           8.5677    1.5625   -0.7914 H       1  UNL1        0.0709
     28 H           4.4344   -2.4922    0.9280 H       1  UNL1        0.0630
     29 H           1.8001   -2.6681    1.0075 H       1  UNL1        0.0629
     30 H          -0.1467   -0.5292    2.1701 H       1  UNL1        0.0837
     31 H          -3.8789    1.3099    2.1004 H       1  UNL1        0.0624
     32 H          -6.2840    1.7655    2.3393 H       1  UNL1        0.0618
     33 H          -7.8606    1.1616    0.5191 H       1  UNL1        0.0618
     34 H          -7.0018    0.0831   -1.5436 H       1  UNL1        0.0618
     35 H          -4.6160   -0.3924   -1.7995 H       1  UNL1        0.0624
@<TRIPOS>BOND
     1     1     2   ar
     2     2     3   ar
     3     3     4   ar
     4     4     5   ar
     5     4     6    1
     6     6     7   ar
     7     7     8   ar
     8     8     9   ar
     9     9    10   ar
    10     9    11    1
    11    11    12   ar
    12    12    13   ar
    13    13    14   ar
    14    14    15    1
    15    15    16   ar
    16    16    17   ar
    17    17    18   ar
    18    18    19   ar
    19    19    20   ar
    20    14    21   ar
    21    21    22   ar
    22    22    23   ar
    23    23    24   ar
    24    24    25   ar
    25     5     1   ar
    26    10     6   ar
    27    25    11   ar
    28    20    15   ar
    29    25    21   ar
    30     1    26    1
    31     2    27    1
    32     7    28    1
    33     8    29    1
    34    12    30    1
    35    16    31    1
    36    17    32    1
    37    18    33    1
    38    19    34    1
    39    20    35    1
