@<TRIPOS>MOLECULE
*****
 39 44 0 0 0
SMALL
GASTEIGER

@<TRIPOS>ATOM
      1 C           6.4306   -0.1619    0.3756 C.ar    1  UNL1        0.0354
      2 C           6.7005   -0.1871    1.7237 C.ar    1  UNL1       -0.0042
      3 S           5.2338   -0.1616    2.6025 S.2     1  UNL1       -0.0757
      4 C           4.3385   -0.1187    1.1242 C.ar    1  UNL1        0.1082
      5 N           5.0932   -0.1233    0.0383 N.ar    1  UNL1       -0.2473
      6 C           2.8603   -0.0807    1.0979 C.ar    1  UNL1        0.0077
      7 C           2.0651   -0.0758    2.2324 C.ar    1  UNL1       -0.0514
      8 C           0.6715   -0.0387    2.1161 C.ar    1  UNL1       -0.0528
      9 C          -0.0149   -0.0042    0.8705 C.ar    1  UNL1       -0.0094
     10 C           0.7784   -0.0085   -0.3041 C.ar    1  UNL1       -0.0089
     11 C           2.1972   -0.0469   -0.1410 C.ar    1  UNL1       -0.0437
     12 C           0.1496    0.0250   -1.5935 C.ar    1  UNL1       -0.0096
     13 C           0.8949    0.0225   -2.8086 C.ar    1  UNL1       -0.0534
     14 C           0.3052    0.0547   -4.0709 C.ar    1  UNL1       -0.0611
     15 C          -1.0665    0.0910   -4.1690 C.ar    1  UNL1       -0.0611
     16 C          -1.8307    0.0947   -3.0031 C.ar    1  UNL1       -0.0534
     17 C          -1.2674    0.0625   -1.6936 C.ar    1  UNL1       -0.0096
     18 C          -2.0726    0.0670   -0.5057 C.ar    1  UNL1       -0.0088
     19 C          -3.5014    0.1042   -0.5647 C.ar    1  UNL1       -0.0427
     20 C          -4.2966    0.1088    0.5913 C.ar    1  UNL1        0.0207
     21 C          -5.6841    0.1402    0.8854 C.ar    1  UNL1       -0.0161
     22 C          -5.7862    0.1242    2.2579 C.ar    1  UNL1        0.0931
     23 O          -4.5522    0.0850    2.8269 O.2     1  UNL1       -0.4629
     24 C          -3.6507    0.0758    1.8069 C.ar    1  UNL1        0.1354
     25 C          -2.2682    0.0387    1.9410 C.ar    1  UNL1       -0.0105
     26 C          -1.4463    0.0336    0.7764 C.ar    1  UNL1       -0.0061
     27 H           7.1751   -0.1703   -0.4111 H       1  UNL1        0.0835
     28 H           7.6603   -0.2183    2.2184 H       1  UNL1        0.0709
     29 H           2.4909   -0.1002    3.2317 H       1  UNL1        0.0624
     30 H           0.1298   -0.0376    3.0578 H       1  UNL1        0.0624
     31 H           2.8417   -0.0515   -1.0171 H       1  UNL1        0.0630
     32 H           1.9808   -0.0052   -2.8049 H       1  UNL1        0.0624
     33 H           0.9237    0.0511   -4.9640 H       1  UNL1        0.0618
     34 H          -1.5496    0.1166   -5.1415 H       1  UNL1        0.0618
     35 H          -2.9053    0.1242   -3.1549 H       1  UNL1        0.0624
     36 H          -4.0339    0.1306   -1.5073 H       1  UNL1        0.0631
     37 H          -6.5068    0.1707    0.1858 H       1  UNL1        0.0655
     38 H          -6.6178    0.1360    2.9486 H       1  UNL1        0.1029
     39 H          -1.8697    0.0149    2.9458 H       1  UNL1        0.0661
@<TRIPOS>BOND
     1     1     2   ar
     2     2     3   ar
     3     3     4   ar
     4     4     5   ar
     5     4     6    1
     6     6     7   ar
     7     7     8   ar
     8     8     9   ar
     9     9    10   ar
    10    10    11   ar
    11    10    12   ar
    12    12    13   ar
    13    13    14   ar
    14    14    15   ar
    15    15    16   ar
    16    16    17   ar
    17    17    18   ar
    18    18    19   ar
    19    19    20   ar
    20    20    21   ar
    21    21    22   ar
    22    22    23   ar
    23    23    24   ar
    24    24    25   ar
    25    25    26   ar
    26     5     1   ar
    27    11     6   ar
    28    17    12   ar
    29    26    18   ar
    30    26     9   ar
    31    24    20   ar
    32     1    27    1
    33     2    28    1
    34     7    29    1
    35     8    30    1
    36    11    31    1
    37    13    32    1
    38    14    33    1
    39    15    34    1
    40    16    35    1
    41    19    36    1
    42    21    37    1
    43    22    38    1
    44    25    39    1
