@<TRIPOS>MOLECULE
*****
 45 52 0 0 0
SMALL
GASTEIGER

@<TRIPOS>ATOM
      1 SI         -5.0414    2.8670    2.4330 Si      1  UNL1        0.0000
      2 C          -6.1205    1.9540    1.2287 C.2     1  UNL1        0.0000
      3 C          -5.3960    1.1247    0.4539 C.ar    1  UNL1        0.0000
      4 C          -5.9943    0.2599   -0.5358 C.ar    1  UNL1        0.0000
      5 C          -5.2261   -0.5744   -1.2506 C.ar    1  UNL1        0.0000
      6 C          -3.7645   -0.6108   -1.0632 C.ar    1  UNL1        0.0000
      7 C          -2.9913   -1.4589   -1.8839 C.ar    1  UNL1        0.0000
      8 N          -3.4545   -2.2663   -2.8646 N.ar    1  UNL1        0.0000
      9 S          -2.1345   -2.9744   -3.5885 S.2     1  UNL1        0.0000
     10 N          -0.9149   -2.3127   -2.6700 N.ar    1  UNL1        0.0000
     11 C          -1.5470   -1.5655   -1.7794 C.ar    1  UNL1        0.0000
     12 C          -0.8671   -0.7674   -0.7816 C.ar    1  UNL1        0.0000
     13 C          -1.6380    0.1640   -0.0741 C.ar    1  UNL1        0.0000
     14 S          -0.5346    1.2074    0.7713 S.2     1  UNL1        0.0000
     15 C           0.8733    0.3525    0.2973 C.ar    1  UNL1        0.0000
     16 C           2.2106    0.7005    0.6357 C.ar    1  UNL1        0.0000
     17 C           3.3011   -0.0935    0.2520 C.ar    1  UNL1        0.0000
     18 C           4.6703    0.2516    0.5784 C.2     1  UNL1        0.0000
     19 C           5.2733    0.1147    1.7767 C.2     1  UNL1        0.0000
     20 C           6.6484    0.5862    1.8319 C.2     1  UNL1        0.0000
     21 C           7.1223    1.1106    0.6867 C.2     1  UNL1        0.0000
     22 SI          5.8242    1.0665   -0.6790 Si      1  UNL1        0.0000
     23 C           2.9218   -1.2771   -0.3906 C.ar    1  UNL1        0.0000
     24 C           3.8269   -2.2647   -0.7272 C.ar    1  UNL1        0.0000
     25 S           3.0666   -3.6523   -1.3969 S.2     1  UNL1        0.0000
     26 C           1.5040   -2.9547   -1.2288 C.ar    1  UNL1        0.0000
     27 C           1.5981   -1.6785   -0.7499 C.ar    1  UNL1        0.0000
     28 C           0.5115   -0.7545   -0.4555 C.ar    1  UNL1        0.0000
     29 C          -3.0684    0.2190   -0.1365 C.ar    1  UNL1        0.0000
     30 C          -3.9243    1.1235    0.6993 C.ar    1  UNL1        0.0000
     31 C          -3.5744    1.9466    1.7116 C.2     1  UNL1        0.0000
     32 H          -4.9808    4.3229    2.1598 H       1  UNL1        0.0000
     33 H          -5.3049    2.4862    3.8414 H       1  UNL1        0.0000
     34 H          -7.1900    2.0925    1.2137 H       1  UNL1        0.0000
     35 H          -7.0692    0.2848   -0.6830 H       1  UNL1        0.0000
     36 H          -5.6739   -1.2311   -1.9906 H       1  UNL1        0.0000
     37 H           2.3902    1.6093    1.2093 H       1  UNL1        0.0000
     38 H           4.7975   -0.3077    2.6538 H       1  UNL1        0.0000
     39 H           7.2259    0.5105    2.7452 H       1  UNL1        0.0000
     40 H           8.1071    1.5153    0.5149 H       1  UNL1        0.0000
     41 H           6.2172    0.1500   -1.7783 H       1  UNL1        0.0000
     42 H           5.3853    2.4297   -1.0690 H       1  UNL1        0.0000
     43 H           4.8996   -2.2799   -0.5924 H       1  UNL1        0.0000
     44 H           0.6481   -3.5606   -1.4750 H       1  UNL1        0.0000
     45 H          -2.6130    2.1349    2.1498 H       1  UNL1        0.0000
@<TRIPOS>BOND
     1     1     2    1
     2     2     3    2
     3     3     4   ar
     4     4     5   ar
     5     5     6   ar
     6     6     7   ar
     7     7     8   ar
     8     8     9   ar
     9     9    10   ar
    10    10    11   ar
    11    11    12   ar
    12    12    13   ar
    13    13    14   ar
    14    14    15   ar
    15    15    16   ar
    16    16    17   ar
    17    17    18    1
    18    18    19    2
    19    19    20    1
    20    20    21    2
    21    21    22    1
    22    17    23   ar
    23    23    24   ar
    24    24    25   ar
    25    25    26   ar
    26    26    27   ar
    27    27    28   ar
    28    13    29   ar
    29    29    30   ar
    30    30    31    2
    31    31     1    1
    32    30     3   ar
    33    29     6   ar
    34    11     7   ar
    35    28    12   ar
    36    28    15   ar
    37    22    18    1
    38    27    23   ar
    39     1    32    1
    40     1    33    1
    41     2    34    1
    42     4    35    1
    43     5    36    1
    44    16    37    1
    45    19    38    1
    46    20    39    1
    47    21    40    1
    48    22    41    1
    49    22    42    1
    50    24    43    1
    51    26    44    1
    52    31    45    1
