@<TRIPOS>MOLECULE
*****
 31 35 0 0 0
SMALL
GASTEIGER

@<TRIPOS>ATOM
      1 C           6.1937   -0.0461   -1.0681 C.ar    1  UNL1        0.0354
      2 C           6.3255   -0.7678    0.0949 C.ar    1  UNL1       -0.0042
      3 S           4.7837   -1.0226    0.7890 S.2     1  UNL1       -0.0757
      4 C           4.0449   -0.1527   -0.5096 C.ar    1  UNL1        0.1082
      5 N           4.9025    0.3008   -1.4083 N.ar    1  UNL1       -0.2473
      6 C           2.5824    0.0557   -0.5915 C.ar    1  UNL1        0.0077
      7 C           2.0649    0.7736   -1.6796 C.ar    1  UNL1       -0.0515
      8 C           0.6923    1.0031   -1.8123 C.ar    1  UNL1       -0.0534
      9 C          -0.2098    0.5202   -0.8573 C.ar    1  UNL1       -0.0170
     10 C          -1.5900    0.7529   -0.9937 C.ar    1  UNL1       -0.0413
     11 C          -2.4709    0.2569   -0.0211 C.ar    1  UNL1        0.0432
     12 C          -1.9742   -0.4624    1.0731 C.ar    1  UNL1        0.0511
     13 C          -0.6022   -0.7034    1.2246 C.ar    1  UNL1       -0.0299
     14 C           0.2841   -0.2063    0.2492 C.ar    1  UNL1       -0.0153
     15 C           1.6707   -0.4264    0.3638 C.ar    1  UNL1       -0.0443
     16 N          -3.0314   -0.8419    1.8856 N.ar    1  UNL1       -0.3516
     17 C          -4.1914   -0.3770    1.3279 C.ar    1  UNL1        0.0860
     18 C          -5.5899   -0.3272    1.4954 C.ar    1  UNL1        0.0002
     19 C          -6.0024    0.3882    0.3927 C.ar    1  UNL1        0.0946
     20 O          -4.9705    0.7683   -0.4164 O.2     1  UNL1       -0.4607
     21 C          -3.8612    0.2761    0.1952 C.ar    1  UNL1        0.1599
     22 H           7.0103    0.2569   -1.7120 H       1  UNL1        0.0835
     23 H           7.2269   -1.1454    0.5550 H       1  UNL1        0.0709
     24 H           2.7368    1.1649   -2.4428 H       1  UNL1        0.0624
     25 H           0.3371    1.5654   -2.6734 H       1  UNL1        0.0624
     26 H          -1.9861    1.3095   -1.8384 H       1  UNL1        0.0631
     27 H          -0.2344   -1.2633    2.0797 H       1  UNL1        0.0644
     28 H           2.0285   -0.9881    1.2236 H       1  UNL1        0.0630
     29 H          -2.9855   -1.3705    2.7466 H       1  UNL1        0.1660
     30 H          -6.2062   -0.7378    2.2806 H       1  UNL1        0.0670
     31 H          -6.9781    0.7038    0.0477 H       1  UNL1        0.1030
@<TRIPOS>BOND
     1     1     2   ar
     2     2     3   ar
     3     3     4   ar
     4     4     5   ar
     5     4     6    1
     6     6     7   ar
     7     7     8   ar
     8     8     9   ar
     9     9    10   ar
    10    10    11   ar
    11    11    12   ar
    12    12    13   ar
    13    13    14   ar
    14    14    15   ar
    15    12    16   ar
    16    16    17   ar
    17    17    18   ar
    18    18    19   ar
    19    19    20   ar
    20    20    21   ar
    21     5     1   ar
    22    15     6   ar
    23    21    17   ar
    24    14     9   ar
    25    21    11   ar
    26     1    22    1
    27     2    23    1
    28     7    24    1
    29     8    25    1
    30    10    26    1
    31    13    27    1
    32    15    28    1
    33    16    29    1
    34    18    30    1
    35    19    31    1
