@<TRIPOS>MOLECULE
*****
 48 55 0 0 0
SMALL
GASTEIGER

@<TRIPOS>ATOM
      1 C           7.2661    1.7403   -1.4005 C.ar    1  UNL1        0.0354
      2 C           7.7246    0.6508   -0.6974 C.ar    1  UNL1       -0.0042
      3 S           6.4023   -0.1773    0.0032 S.2     1  UNL1       -0.0756
      4 C           5.3096    0.9744   -0.6785 C.ar    1  UNL1        0.1097
      5 N           5.8978    1.9206   -1.3890 N.ar    1  UNL1       -0.2473
      6 C           3.8548    0.8903   -0.4798 C.ar    1  UNL1        0.0258
      7 C           3.0288    1.8037   -1.0956 C.ar    1  UNL1        0.0380
      8 N           1.6810    1.8062   -0.9855 N.ar    1  UNL1       -0.2537
      9 C           1.0460    0.8745   -0.2350 C.ar    1  UNL1        0.0799
     10 C           1.7840   -0.0941    0.4699 C.ar    1  UNL1        0.0094
     11 C           3.2017   -0.0580    0.3108 C.ar    1  UNL1       -0.0408
     12 C           1.1075   -1.0111    1.3371 C.ar    1  UNL1       -0.0081
     13 C           1.8061   -1.9008    2.2017 C.ar    1  UNL1       -0.0534
     14 C           1.1654   -2.6943    3.1511 C.ar    1  UNL1       -0.0611
     15 C          -0.2006   -2.5980    3.2916 C.ar    1  UNL1       -0.0611
     16 C          -0.9134   -1.7599    2.4359 C.ar    1  UNL1       -0.0534
     17 C          -0.3142   -1.0161    1.3880 C.ar    1  UNL1       -0.0089
     18 C          -1.0983   -0.2227    0.4845 C.ar    1  UNL1        0.0009
     19 C          -2.5841   -0.3914    0.2299 C.ar    1  UNL1        0.0018
     20 C          -3.4177   -1.5463    0.3785 C.ar    1  UNL1        0.0282
     21 C          -3.0288   -2.8558    0.5526 C.ar    1  UNL1        0.1000
     22 O          -4.1159   -3.6808    0.6164 O.2     1  UNL1       -0.4698
     23 C          -5.2216   -2.9131    0.4003 C.ar    1  UNL1        0.0994
     24 C          -4.8382   -1.6148    0.1953 C.ar    1  UNL1        0.0205
     25 C          -5.6857   -0.5905   -0.1795 C.ar    1  UNL1       -0.0504
     26 C          -4.9257    0.5497   -0.4781 C.ar    1  UNL1       -0.0527
     27 C          -3.4718    0.6257   -0.3275 C.ar    1  UNL1       -0.0074
     28 C          -2.6946    1.7080   -0.7714 C.ar    1  UNL1        0.0078
     29 C          -3.1725    2.8439   -1.3860 C.ar    1  UNL1        0.0100
     30 N          -2.0886    3.6175   -1.7186 N.ar    1  UNL1       -0.3659
     31 C          -0.9322    2.9865   -1.3323 C.ar    1  UNL1        0.0101
     32 C          -1.2667    1.7879   -0.7401 C.ar    1  UNL1        0.0098
     33 C          -0.3756    0.8256   -0.1718 C.ar    1  UNL1        0.0184
     34 H           7.8885    2.4407   -1.9441 H       1  UNL1        0.0835
     35 H           8.7425    0.3128   -0.5671 H       1  UNL1        0.0709
     36 H           3.4281    2.5926   -1.7294 H       1  UNL1        0.0836
     37 H           3.8095   -0.7957    0.8222 H       1  UNL1        0.0631
     38 H           2.8897   -1.9714    2.1860 H       1  UNL1        0.0624
     39 H           1.7421   -3.3444    3.8030 H       1  UNL1        0.0618
     40 H          -0.7194   -3.1593    4.0640 H       1  UNL1        0.0618
     41 H          -1.9798   -1.6654    2.6349 H       1  UNL1        0.0624
     42 H          -2.0781   -3.3630    0.6365 H       1  UNL1        0.1036
     43 H          -6.1626   -3.4442    0.3816 H       1  UNL1        0.1035
     44 H          -6.7541   -0.6574   -0.3223 H       1  UNL1        0.0625
     45 H          -5.4559    1.4133   -0.8772 H       1  UNL1        0.0624
     46 H          -4.1698    3.1803   -1.6306 H       1  UNL1        0.0813
     47 H          -2.1298    4.5149   -2.1839 H       1  UNL1        0.1648
     48 H           0.0197    3.4655   -1.5147 H       1  UNL1        0.0813
@<TRIPOS>BOND
     1     1     2   ar
     2     2     3   ar
     3     3     4   ar
     4     4     5   ar
     5     4     6    1
     6     6     7   ar
     7     7     8   ar
     8     8     9   ar
     9     9    10   ar
    10    10    11   ar
    11    10    12   ar
    12    12    13   ar
    13    13    14   ar
    14    14    15   ar
    15    15    16   ar
    16    16    17   ar
    17    17    18   ar
    18    18    19   ar
    19    19    20   ar
    20    20    21   ar
    21    21    22   ar
    22    22    23   ar
    23    23    24   ar
    24    24    25   ar
    25    25    26   ar
    26    26    27   ar
    27    27    28   ar
    28    28    29   ar
    29    29    30   ar
    30    30    31   ar
    31    31    32   ar
    32    32    33   ar
    33     5     1   ar
    34    11     6   ar
    35    17    12   ar
    36    33    18   ar
    37    33     9   ar
    38    27    19   ar
    39    32    28   ar
    40    24    20   ar
    41     1    34    1
    42     2    35    1
    43     7    36    1
    44    11    37    1
    45    13    38    1
    46    14    39    1
    47    15    40    1
    48    16    41    1
    49    21    42    1
    50    23    43    1
    51    25    44    1
    52    26    45    1
    53    29    46    1
    54    30    47    1
    55    31    48    1
