@<TRIPOS>MOLECULE
*****
 27 31 0 0 0
SMALL
GASTEIGER

@<TRIPOS>ATOM
      1 C          -5.7672   -0.4973    0.6190 C.ar    1  UNL1        0.0354
      2 C          -6.2058    0.0143   -0.5798 C.ar    1  UNL1       -0.0042
      3 S          -4.8625    0.4840   -1.5282 S.2     1  UNL1       -0.0756
      4 C          -3.7883   -0.0270   -0.2753 C.ar    1  UNL1        0.1097
      5 N          -4.3978   -0.5196    0.7889 N.ar    1  UNL1       -0.2473
      6 C          -2.3228    0.0828   -0.3966 C.ar    1  UNL1        0.0263
      7 C          -1.6710    0.6020   -1.5176 C.ar    1  UNL1        0.0381
      8 N          -0.3311    0.7286   -1.6879 N.ar    1  UNL1       -0.2501
      9 C           0.4062    0.2952   -0.6404 C.ar    1  UNL1        0.1208
     10 C          -0.1228   -0.2472    0.5441 C.ar    1  UNL1        0.0426
     11 C          -1.5171   -0.3556    0.6683 C.ar    1  UNL1       -0.0347
     12 S           1.1143   -0.7125    1.7077 S.2     1  UNL1       -0.0813
     13 C           2.2403   -0.1832    0.6050 C.ar    1  UNL1        0.0840
     14 C           3.5589   -0.1237    0.5851 C.ar    1  UNL1        0.0996
     15 N           4.5602   -0.4489    1.4102 N.ar    1  UNL1       -0.3572
     16 C           5.7026   -0.0920    0.7001 C.ar    1  UNL1        0.0058
     17 C           5.3665    0.4458   -0.5493 C.ar    1  UNL1       -0.0013
     18 C           3.9618    0.3992   -0.5662 C.ar    1  UNL1        0.1543
     19 O           2.8816    0.6937   -1.3285 O.2     1  UNL1       -0.4505
     20 C           1.8116    0.3152   -0.5631 C.ar    1  UNL1        0.1706
     21 H          -6.4058   -0.8707    1.4105 H       1  UNL1        0.0835
     22 H          -7.2206    0.1305   -0.9320 H       1  UNL1        0.0709
     23 H          -2.2287    0.9607   -2.3801 H       1  UNL1        0.0836
     24 H          -1.9588   -0.7705    1.5710 H       1  UNL1        0.0636
     25 H           4.4800   -0.8589    2.3333 H       1  UNL1        0.1655
     26 H           6.6749   -0.2524    1.1490 H       1  UNL1        0.0808
     27 H           6.0416    0.8076   -1.3110 H       1  UNL1        0.0669
@<TRIPOS>BOND
     1     1     2   ar
     2     2     3   ar
     3     3     4   ar
     4     4     5   ar
     5     4     6    1
     6     6     7   ar
     7     7     8   ar
     8     8     9   ar
     9     9    10   ar
    10    10    11   ar
    11    10    12   ar
    12    12    13   ar
    13    13    14   ar
    14    14    15   ar
    15    15    16   ar
    16    16    17   ar
    17    17    18   ar
    18    18    19   ar
    19    19    20   ar
    20     5     1   ar
    21    11     6   ar
    22    20    13   ar
    23    20     9   ar
    24    18    14   ar
    25     1    21    1
    26     2    22    1
    27     7    23    1
    28    11    24    1
    29    15    25    1
    30    16    26    1
    31    17    27    1
