@<TRIPOS>MOLECULE
*****
 36 42 0 0 0
SMALL
GASTEIGER

@<TRIPOS>ATOM
      1 C           6.8909   -0.3312    0.5230 C.ar    1  UNL1        0.0354
      2 C           7.0723    0.6361   -0.4377 C.ar    1  UNL1       -0.0042
      3 S           5.5512    1.1593   -1.0188 S.2     1  UNL1       -0.0756
      4 C           4.7559    0.0598    0.0507 C.ar    1  UNL1        0.1097
      5 N           5.5777   -0.6555    0.7975 N.ar    1  UNL1       -0.2473
      6 C           3.2892   -0.0556    0.1105 C.ar    1  UNL1        0.0258
      7 C           2.7155   -0.9698    1.0031 C.ar    1  UNL1        0.0381
      8 N           1.3826   -1.1880    1.1706 N.ar    1  UNL1       -0.2506
      9 C           0.5486   -0.4533    0.4041 C.ar    1  UNL1        0.1144
     10 C          -0.8427   -0.6804    0.5785 C.ar    1  UNL1        0.1628
     11 O          -1.4272   -1.5758    1.4518 O.2     1  UNL1       -0.4526
     12 C          -2.7863   -1.4765    1.3009 C.ar    1  UNL1        0.1386
     13 C          -3.7307   -2.2257    2.0144 C.ar    1  UNL1       -0.0166
     14 C          -5.0950   -2.0160    1.7528 C.ar    1  UNL1       -0.0300
     15 C          -5.4241   -1.0488    0.7728 C.ar    1  UNL1        0.1007
     16 N          -6.6700   -0.7119    0.3886 N.ar    1  UNL1       -0.1908
     17 S          -6.5100    0.4697   -0.7872 S.2     1  UNL1        0.1165
     18 N          -4.8412    0.6083   -0.8625 N.ar    1  UNL1       -0.1900
     19 C          -4.4323   -0.2727    0.0343 C.ar    1  UNL1        0.1112
     20 C          -3.0641   -0.5245    0.3381 C.ar    1  UNL1        0.0568
     21 C          -1.8586   -0.0287   -0.1121 C.ar    1  UNL1        0.0429
     22 C          -1.4388    0.9383   -1.0633 C.ar    1  UNL1        0.0319
     23 C          -2.1182    1.7575   -1.9086 C.ar    1  UNL1        0.1001
     24 O          -1.1951    2.4937   -2.6098 O.2     1  UNL1       -0.4698
     25 C           0.0517    2.1141   -2.1828 C.ar    1  UNL1        0.1000
     26 C          -0.0519    1.1424   -1.2148 C.ar    1  UNL1        0.0298
     27 C           1.0096    0.5025   -0.5344 C.ar    1  UNL1        0.0154
     28 C           2.4033    0.6948   -0.6738 C.ar    1  UNL1       -0.0406
     29 H           7.6850   -0.8369    1.0592 H       1  UNL1        0.0835
     30 H           7.9982    1.0470   -0.8135 H       1  UNL1        0.0709
     31 H           3.3442   -1.5870    1.6444 H       1  UNL1        0.0836
     32 H          -3.4086   -2.9528    2.7539 H       1  UNL1        0.0655
     33 H          -5.8669   -2.5688    2.2764 H       1  UNL1        0.0641
     34 H          -3.1505    1.9605   -2.1508 H       1  UNL1        0.1036
     35 H           0.8724    2.6270   -2.6646 H       1  UNL1        0.1036
     36 H           2.7642    1.4253   -1.3907 H       1  UNL1        0.0631
@<TRIPOS>BOND
     1     1     2   ar
     2     2     3   ar
     3     3     4   ar
     4     4     5   ar
     5     4     6    1
     6     6     7   ar
     7     7     8   ar
     8     8     9   ar
     9     9    10   ar
    10    10    11   ar
    11    11    12   ar
    12    12    13   ar
    13    13    14   ar
    14    14    15   ar
    15    15    16   ar
    16    16    17   ar
    17    17    18   ar
    18    18    19   ar
    19    19    20   ar
    20    20    21   ar
    21    21    22   ar
    22    22    23   ar
    23    23    24   ar
    24    24    25   ar
    25    25    26   ar
    26    26    27   ar
    27    27    28   ar
    28     5     1   ar
    29    28     6   ar
    30    27     9   ar
    31    21    10   ar
    32    26    22   ar
    33    20    12   ar
    34    19    15   ar
    35     1    29    1
    36     2    30    1
    37     7    31    1
    38    13    32    1
    39    14    33    1
    40    23    34    1
    41    25    35    1
    42    28    36    1
