@<TRIPOS>MOLECULE
*****
 34 39 0 0 0
SMALL
GASTEIGER

@<TRIPOS>ATOM
      1 C           7.4366   -0.2333   -0.8188 C.ar    1  UNL1        0.0355
      2 C           7.7322    0.4141   -1.9971 C.ar    1  UNL1       -0.0042
      3 S           6.2940    1.0331   -2.6909 S.2     1  UNL1       -0.0736
      4 C           5.3846    0.3926   -1.3715 C.ar    1  UNL1        0.1331
      5 N           6.1024   -0.2449   -0.4632 N.ar    1  UNL1       -0.2452
      6 C           3.9498    0.5549   -1.2885 C.ar    1  UNL1        0.1337
      7 N           3.2347    1.2001   -2.1918 N.ar    1  UNL1       -0.2446
      8 C           1.9001    1.1802   -1.8345 C.ar    1  UNL1        0.0438
      9 C           1.5938    0.5271   -0.6561 C.ar    1  UNL1        0.0466
     10 S           3.0427   -0.0932    0.0238 S.2     1  UNL1       -0.0647
     11 C           0.3039    0.3718   -0.0435 C.ar    1  UNL1        0.0363
     12 S          -0.1948   -1.0906    0.7273 S.2     1  UNL1       -0.0854
     13 C          -1.7573   -0.4862    1.1207 C.ar    1  UNL1        0.0415
     14 C          -2.7486   -1.2601    1.7993 C.ar    1  UNL1        0.0378
     15 S          -2.4415   -2.0285    3.3368 S.2     1  UNL1       -0.0918
     16 C          -4.0361   -2.6989    3.4530 C.ar    1  UNL1        0.0192
     17 C          -4.7127   -2.3269    2.3521 C.ar    1  UNL1        0.1424
     18 O          -5.9988   -2.6497    2.0483 O.2     1  UNL1       -0.4624
     19 C          -6.1168   -2.0070    0.8294 C.ar    1  UNL1        0.0932
     20 C          -4.9586   -1.3327    0.4212 C.ar    1  UNL1       -0.0150
     21 C          -4.0253   -1.5489    1.4529 C.ar    1  UNL1        0.0354
     22 C          -1.8917    0.8048    0.6849 C.ar    1  UNL1        0.0352
     23 S          -3.2543    1.9911    0.8137 S.2     1  UNL1       -0.0955
     24 C          -2.1827    3.0949   -0.0286 C.ar    1  UNL1       -0.0231
     25 C          -0.9194    2.5977   -0.3643 C.ar    1  UNL1       -0.0458
     26 C          -0.7313    1.2471    0.0416 C.ar    1  UNL1        0.0051
     27 H           8.1604   -0.7180   -0.1744 H       1  UNL1        0.0835
     28 H           8.6943    0.5492   -2.4696 H       1  UNL1        0.0709
     29 H           1.1819    1.6610   -2.4881 H       1  UNL1        0.0841
     30 H          -4.3749   -3.3031    4.2815 H       1  UNL1        0.0731
     31 H          -7.0887   -2.1214    0.3672 H       1  UNL1        0.1030
     32 H          -4.8386   -0.7746   -0.4961 H       1  UNL1        0.0655
     33 H          -2.5589    4.0896   -0.2276 H       1  UNL1        0.0694
     34 H          -0.1804    3.2087   -0.8685 H       1  UNL1        0.0629
@<TRIPOS>BOND
     1     1     2   ar
     2     2     3   ar
     3     3     4   ar
     4     4     5   ar
     5     4     6    1
     6     6     7   ar
     7     7     8   ar
     8     8     9   ar
     9     9    10   ar
    10     9    11    1
    11    11    12   ar
    12    12    13   ar
    13    13    14    1
    14    14    15   ar
    15    15    16   ar
    16    16    17   ar
    17    17    18   ar
    18    18    19   ar
    19    19    20   ar
    20    20    21   ar
    21    13    22   ar
    22    22    23   ar
    23    23    24   ar
    24    24    25   ar
    25    25    26   ar
    26     5     1   ar
    27    10     6   ar
    28    26    11   ar
    29    21    14   ar
    30    26    22   ar
    31    21    17   ar
    32     1    27    1
    33     2    28    1
    34     8    29    1
    35    16    30    1
    36    19    31    1
    37    20    32    1
    38    24    33    1
    39    25    34    1
