@<TRIPOS>MOLECULE
*****
 36 41 0 0 0
SMALL
GASTEIGER

@<TRIPOS>ATOM
      1 C          -6.1083   -1.0628    2.4048 C.ar    1  UNL1        0.0355
      2 C          -6.7197    0.1545    2.2126 C.ar    1  UNL1       -0.0042
      3 S          -5.7295    1.1489    1.2250 S.2     1  UNL1       -0.0751
      4 C          -4.5602   -0.1168    1.1432 C.ar    1  UNL1        0.1169
      5 N          -4.8706   -1.2100    1.8095 N.ar    1  UNL1       -0.2467
      6 C          -3.3095    0.0326    0.4522 C.ar    1  UNL1        0.0723
      7 S          -1.8405   -0.4438    1.2135 S.2     1  UNL1       -0.0817
      8 C          -0.8665    0.0312   -0.1255 C.ar    1  UNL1        0.0496
      9 C           0.5891   -0.0753   -0.0548 C.ar    1  UNL1        0.0190
     10 C           1.4289    1.0286   -0.3087 C.ar    1  UNL1       -0.0506
     11 C           2.8384    0.9594   -0.2499 C.ar    1  UNL1       -0.0493
     12 C           3.5515   -0.2193    0.0619 C.ar    1  UNL1        0.0353
     13 C           5.0097   -0.2181    0.1243 C.ar    1  UNL1        0.1103
     14 N           5.7148    0.7914    0.6061 N.ar    1  UNL1       -0.2473
     15 C           7.0656    0.5264    0.4892 C.ar    1  UNL1        0.0354
     16 C           7.3873   -0.6668   -0.1201 C.ar    1  UNL1       -0.0042
     17 S           5.9525   -1.4870   -0.5655 S.2     1  UNL1       -0.0756
     18 C           2.7642   -1.3683    0.3497 C.ar    1  UNL1        0.1101
     19 N           3.1979   -2.5833    0.7269 N.ar    1  UNL1       -0.1901
     20 S           1.8681   -3.5528    0.8901 S.2     1  UNL1        0.1165
     21 N           0.6620   -2.4866    0.5247 N.ar    1  UNL1       -0.1901
     22 C           1.2426   -1.2992    0.2712 C.ar    1  UNL1        0.1088
     23 C          -1.6553    0.5436   -1.1318 C.ar    1  UNL1        0.1046
     24 N          -1.1511    1.0039   -2.3152 N.ar    1  UNL1       -0.2508
     25 C          -2.1456    1.4250   -3.1418 C.ar    1  UNL1        0.0464
     26 C          -3.5075    1.4220   -2.8281 C.ar    1  UNL1        0.0464
     27 N          -4.0366    0.9957   -1.6507 N.ar    1  UNL1       -0.2507
     28 C          -3.0646    0.5429   -0.8026 C.ar    1  UNL1        0.1065
     29 H          -6.5150   -1.8808    2.9860 H       1  UNL1        0.0835
     30 H          -7.6724    0.4978    2.5885 H       1  UNL1        0.0709
     31 H           0.9767    1.9871   -0.5680 H       1  UNL1        0.0625
     32 H           3.4045    1.8664   -0.4655 H       1  UNL1        0.0625
     33 H           7.7814    1.2497    0.8625 H       1  UNL1        0.0835
     34 H           8.3658   -1.0773   -0.3258 H       1  UNL1        0.0709
     35 H          -1.8115    1.7726   -4.1170 H       1  UNL1        0.0845
     36 H          -4.2365    1.7686   -3.5558 H       1  UNL1        0.0845
@<TRIPOS>BOND
     1     1     2   ar
     2     2     3   ar
     3     3     4   ar
     4     4     5   ar
     5     4     6    1
     6     6     7   ar
     7     7     8   ar
     8     8     9    1
     9     9    10   ar
    10    10    11   ar
    11    11    12   ar
    12    12    13    1
    13    13    14   ar
    14    14    15   ar
    15    15    16   ar
    16    16    17   ar
    17    12    18   ar
    18    18    19   ar
    19    19    20   ar
    20    20    21   ar
    21    21    22   ar
    22     8    23   ar
    23    23    24   ar
    24    24    25   ar
    25    25    26   ar
    26    26    27   ar
    27    27    28   ar
    28     5     1   ar
    29    28     6   ar
    30    22     9   ar
    31    28    23   ar
    32    17    13   ar
    33    22    18   ar
    34     1    29    1
    35     2    30    1
    36    10    31    1
    37    11    32    1
    38    15    33    1
    39    16    34    1
    40    25    35    1
    41    26    36    1
