@<TRIPOS>MOLECULE
*****
 39 45 0 0 0
SMALL
GASTEIGER

@<TRIPOS>ATOM
      1 C          -7.3437    1.4343   -0.3304 C.ar    1  UNL1        0.0355
      2 C          -6.9946    2.7092   -0.7135 C.ar    1  UNL1       -0.0042
      3 S          -5.2897    2.8431   -0.7795 S.2     1  UNL1       -0.0751
      4 C          -5.1404    1.1960   -0.2946 C.ar    1  UNL1        0.1168
      5 N          -6.2898    0.5738   -0.0915 N.ar    1  UNL1       -0.2467
      6 C          -3.8779    0.5294   -0.1181 C.ar    1  UNL1        0.0687
      7 S          -2.3075    1.2423   -0.3201 S.2     1  UNL1       -0.0833
      8 C          -1.4478   -0.2237    0.0588 C.ar    1  UNL1        0.0327
      9 C           0.0001   -0.2716    0.0918 C.ar    1  UNL1        0.0356
     10 C           0.7246   -0.7678    1.1794 C.ar    1  UNL1        0.0387
     11 N           2.0862   -0.8666    1.3026 N.ar    1  UNL1       -0.2514
     12 C           2.9104   -0.4514    0.2923 C.ar    1  UNL1        0.1092
     13 C           4.3305   -0.5673    0.4851 C.ar    1  UNL1        0.0825
     14 S           5.1103   -2.0223    1.0103 S.2     1  UNL1       -0.0907
     15 C           6.7025   -1.3137    0.9651 C.ar    1  UNL1       -0.0128
     16 C           6.5650   -0.0272    0.5801 C.ar    1  UNL1        0.0278
     17 C           7.3387    1.1193    0.3429 C.ar    1  UNL1       -0.0156
     18 C           6.4159    2.1059   -0.0289 C.ar    1  UNL1        0.0932
     19 O           5.1010    1.6773   -0.0459 O.2     1  UNL1       -0.4617
     20 C           5.2770    0.3774    0.3228 C.ar    1  UNL1        0.1510
     21 C           2.3242    0.0460   -0.8989 C.ar    1  UNL1        0.1270
     22 N           2.9422    0.4474   -2.0256 N.ar    1  UNL1       -0.1886
     23 S           1.7612    0.9210   -3.0825 S.2     1  UNL1        0.1166
     24 N           0.4051    0.6100   -2.1870 N.ar    1  UNL1       -0.1900
     25 C           0.8145    0.1370   -0.9949 C.ar    1  UNL1        0.1116
     26 C          -2.3776   -1.1634    0.3421 C.ar    1  UNL1        0.0152
     27 C          -2.4996   -2.5242    0.7285 C.ar    1  UNL1       -0.0355
     28 C          -3.8790   -2.8070    0.8269 C.ar    1  UNL1        0.0028
     29 N          -4.6533   -1.6926    0.5188 N.ar    1  UNL1       -0.3597
     30 C          -3.6908   -0.7616    0.2438 C.ar    1  UNL1        0.0641
     31 H          -8.3591    1.0767   -0.2089 H       1  UNL1        0.0835
     32 H          -7.6394    3.5429   -0.9508 H       1  UNL1        0.0709
     33 H           0.1922   -1.1234    2.0627 H       1  UNL1        0.0837
     34 H           7.5811   -1.8846    1.2286 H       1  UNL1        0.0701
     35 H           8.4083    1.2474    0.4243 H       1  UNL1        0.0655
     36 H           6.5391    3.1454   -0.3040 H       1  UNL1        0.1030
     37 H          -1.7049   -3.2353    0.9130 H       1  UNL1        0.0639
     38 H          -4.3762   -3.7313    1.0925 H       1  UNL1        0.0807
     39 H          -5.6593   -1.5469    0.4877 H       1  UNL1        0.1654
@<TRIPOS>BOND
     1     1     2   ar
     2     2     3   ar
     3     3     4   ar
     4     4     5   ar
     5     4     6    1
     6     6     7   ar
     7     7     8   ar
     8     8     9    1
     9     9    10   ar
    10    10    11   ar
    11    11    12   ar
    12    12    13    1
    13    13    14   ar
    14    14    15   ar
    15    15    16   ar
    16    16    17   ar
    17    17    18   ar
    18    18    19   ar
    19    19    20   ar
    20    12    21   ar
    21    21    22   ar
    22    22    23   ar
    23    23    24   ar
    24    24    25   ar
    25     8    26   ar
    26    26    27   ar
    27    27    28   ar
    28    28    29   ar
    29    29    30   ar
    30     5     1   ar
    31    30     6   ar
    32    25     9   ar
    33    30    26   ar
    34    20    13   ar
    35    25    21   ar
    36    20    16   ar
    37     1    31    1
    38     2    32    1
    39    10    33    1
    40    15    34    1
    41    17    35    1
    42    18    36    1
    43    27    37    1
    44    28    38    1
    45    29    39    1
