@<TRIPOS>MOLECULE
*****
 42 48 0 0 0
SMALL
GASTEIGER

@<TRIPOS>ATOM
      1 C           6.6491    3.0695    0.3440 C.ar    1  UNL1        0.0355
      2 C           7.6374    2.1538    0.0662 C.ar    1  UNL1       -0.0042
      3 S           6.9271    0.6557   -0.3570 S.2     1  UNL1       -0.0751
      4 C           5.3547    1.3348   -0.1456 C.ar    1  UNL1        0.1168
      5 N           5.3568    2.6015    0.2244 N.ar    1  UNL1       -0.2467
      6 C           4.1333    0.5966   -0.3313 C.ar    1  UNL1        0.0687
      7 S           2.6058    1.1668    0.2890 S.2     1  UNL1       -0.0829
      8 C           1.7097   -0.1972   -0.3005 C.ar    1  UNL1        0.0368
      9 C           0.3044   -0.3424   -0.0904 C.ar    1  UNL1        0.0414
     10 S          -0.8502    0.8473   -0.5655 S.2     1  UNL1       -0.0860
     11 C          -2.1923   -0.0744   -0.0016 C.ar    1  UNL1        0.0288
     12 C          -3.5398    0.4400   -0.1284 C.ar    1  UNL1       -0.0025
     13 C          -4.1857    0.6599   -1.3694 C.ar    1  UNL1       -0.0529
     14 C          -5.5273    1.1455   -1.4951 C.ar    1  UNL1       -0.0606
     15 C          -6.3582    1.4603   -0.3983 C.ar    1  UNL1       -0.0535
     16 C          -5.7155    1.2472    0.8218 C.ar    1  UNL1       -0.0103
     17 C          -6.3261    1.4931    2.0264 C.ar    1  UNL1       -0.0166
     18 S          -5.2728    1.1487    3.3395 S.2     1  UNL1       -0.1039
     19 C          -3.9950    0.6755    2.2894 C.ar    1  UNL1       -0.0160
     20 C          -4.3636    0.7581    0.9659 C.ar    1  UNL1       -0.0027
     21 C          -1.7088   -1.2316    0.5128 C.ar    1  UNL1        0.0046
     22 C          -2.3193   -2.3679    1.1051 C.ar    1  UNL1       -0.0459
     23 C          -1.3882   -3.3323    1.5036 C.ar    1  UNL1       -0.0231
     24 S           0.3005   -2.9569    1.1988 S.2     1  UNL1       -0.0955
     25 C          -0.3246   -1.4150    0.4848 C.ar    1  UNL1        0.0352
     26 C           2.5857   -1.0012   -0.9425 C.ar    1  UNL1        0.0156
     27 C           2.6304   -2.2156   -1.6748 C.ar    1  UNL1       -0.0355
     28 C           3.9681   -2.4139   -2.0694 C.ar    1  UNL1        0.0028
     29 N           4.7896   -1.3803   -1.6301 N.ar    1  UNL1       -0.3597
     30 C           3.8997   -0.5785   -0.9670 C.ar    1  UNL1        0.0641
     31 H           6.8137    4.0982    0.6414 H       1  UNL1        0.0835
     32 H           8.7088    2.2902    0.0941 H       1  UNL1        0.0709
     33 H          -3.6401    0.4439   -2.2891 H       1  UNL1        0.0624
     34 H          -5.9283    1.2785   -2.5008 H       1  UNL1        0.0618
     35 H          -7.3691    1.8275   -0.5166 H       1  UNL1        0.0624
     36 H          -7.3254    1.8585    2.2194 H       1  UNL1        0.0699
     37 H          -3.0506    0.3681    2.7172 H       1  UNL1        0.0700
     38 H          -3.3859   -2.4962    1.2475 H       1  UNL1        0.0629
     39 H          -1.6027   -4.2794    1.9800 H       1  UNL1        0.0694
     40 H           1.8063   -2.8790   -1.9033 H       1  UNL1        0.0639
     41 H           4.4040   -3.2234   -2.6412 H       1  UNL1        0.0807
     42 H           5.7847   -1.2338   -1.7533 H       1  UNL1        0.1654
@<TRIPOS>BOND
     1     1     2   ar
     2     2     3   ar
     3     3     4   ar
     4     4     5   ar
     5     4     6    1
     6     6     7   ar
     7     7     8   ar
     8     8     9    1
     9     9    10   ar
    10    10    11   ar
    11    11    12    1
    12    12    13   ar
    13    13    14   ar
    14    14    15   ar
    15    15    16   ar
    16    16    17   ar
    17    17    18   ar
    18    18    19   ar
    19    19    20   ar
    20    11    21   ar
    21    21    22   ar
    22    22    23   ar
    23    23    24   ar
    24    24    25   ar
    25     8    26   ar
    26    26    27   ar
    27    27    28   ar
    28    28    29   ar
    29    29    30   ar
    30     5     1   ar
    31    30     6   ar
    32    25     9   ar
    33    30    26   ar
    34    20    12   ar
    35    25    21   ar
    36    20    16   ar
    37     1    31    1
    38     2    32    1
    39    13    33    1
    40    14    34    1
    41    15    35    1
    42    17    36    1
    43    19    37    1
    44    22    38    1
    45    23    39    1
    46    27    40    1
    47    28    41    1
    48    29    42    1
