@<TRIPOS>MOLECULE
*****
 15 16 0 0 0
SMALL
GASTEIGER

@<TRIPOS>ATOM
      1 C          -1.2896    1.1737   -0.2683 C.ar    1  UNL1        0.0570
      2 N          -2.5934    0.8891   -0.1958 N.ar    1  UNL1       -0.1817
      3 N          -2.6166   -0.4192    0.1101 N.ar    1  UNL1       -0.2841
      4 C          -1.3730   -0.9704    0.2332 C.ar    1  UNL1        0.0302
      5 C          -0.4817    0.0487   -0.0091 C.ar    1  UNL1        0.0239
      6 C           0.9666    0.0004   -0.0046 C.ar    1  UNL1        0.0437
      7 C           1.8569    1.0610   -0.2566 C.ar    1  UNL1        0.0778
      8 N           3.1337    0.6742   -0.1721 N.ar    1  UNL1       -0.0862
      9 O           3.0853   -0.6760    0.1437 O.2     1  UNL1       -0.3623
     10 C           1.7893   -1.0683    0.2414 C.ar    1  UNL1        0.1320
     11 H          -0.9960    2.1879   -0.5068 H       1  UNL1        0.0854
     12 H          -3.5189   -0.8714    0.2200 H       1  UNL1        0.1882
     13 H          -1.2456   -2.0151    0.4768 H       1  UNL1        0.0830
     14 H           1.6479    2.0937   -0.4970 H       1  UNL1        0.0870
     15 H           1.6351   -2.1083    0.4852 H       1  UNL1        0.1064
@<TRIPOS>BOND
     1     1     2   ar
     2     2     3   ar
     3     3     4   ar
     4     4     5   ar
     5     5     6    1
     6     6     7   ar
     7     7     8   ar
     8     8     9   ar
     9     9    10   ar
    10     5     1   ar
    11    10     6   ar
    12     1    11    1
    13     3    12    1
    14     4    13    1
    15     7    14    1
    16    10    15    1
