@<TRIPOS>MOLECULE
*****
 34 37 0 0 0
SMALL
GASTEIGER

@<TRIPOS>ATOM
      1 C           5.5176   -0.1981    0.6618 C.ar    1  UNL1        0.0654
      2 N           4.2573   -0.5638    0.7236 N.ar    1  UNL1       -0.2474
      3 C           3.4469    0.4411    0.2065 C.ar    1  UNL1        0.0781
      4 C           1.9938    0.2840    0.1559 C.ar    1  UNL1        0.0015
      5 C           1.1265    1.3689   -0.0109 C.ar    1  UNL1       -0.0476
      6 C          -0.2693    1.1861   -0.0427 C.ar    1  UNL1       -0.0254
      7 C          -0.8298   -0.1010    0.0654 C.ar    1  UNL1        0.0361
      8 C           0.0445   -1.1918    0.2260 C.ar    1  UNL1       -0.0254
      9 C           1.4353   -0.9920    0.2870 C.ar    1  UNL1       -0.0476
     10 C          -0.4991   -2.5902    0.3706 C.3     1  UNL1       -0.0245
     11 C          -1.8828   -2.7067   -0.2524 C.3     1  UNL1       -0.0332
     12 C          -2.7790   -1.6009    0.2826 C.3     1  UNL1        0.0125
     13 N          -2.2040   -0.2884    0.0163 N.pl3   1  UNL1       -0.3294
     14 C          -3.0953    0.8273   -0.2725 C.3     1  UNL1        0.0125
     15 C          -2.5579    2.1215    0.3174 C.3     1  UNL1       -0.0332
     16 C          -1.1607    2.3890   -0.2233 C.3     1  UNL1       -0.0245
     17 C           4.1362    1.5484   -0.2550 C.ar    1  UNL1        0.0031
     18 S           5.8245    1.3424   -0.0197 S.2     1  UNL1       -0.0833
     19 H           6.3200   -0.8308    1.0176 H       1  UNL1        0.0907
     20 H           1.5158    2.3794   -0.0976 H       1  UNL1        0.0627
     21 H           2.0896   -1.8511    0.4285 H       1  UNL1        0.0627
     22 H           0.1700   -3.3102   -0.1152 H       1  UNL1        0.0314
     23 H          -0.5431   -2.8399    1.4377 H       1  UNL1        0.0314
     24 H          -1.8076   -2.6253   -1.3447 H       1  UNL1        0.0283
     25 H          -2.3143   -3.6883   -0.0281 H       1  UNL1        0.0283
     26 H          -3.7648   -1.6871   -0.1900 H       1  UNL1        0.0464
     27 H          -2.9284   -1.7178    1.3629 H       1  UNL1        0.0464
     28 H          -3.2132    0.9224   -1.3589 H       1  UNL1        0.0464
     29 H          -4.0918    0.6371    0.1437 H       1  UNL1        0.0464
     30 H          -2.5253    2.0432    1.4120 H       1  UNL1        0.0283
     31 H          -3.2225    2.9567    0.0706 H       1  UNL1        0.0283
     32 H          -1.2085    2.6316   -1.2918 H       1  UNL1        0.0314
     33 H          -0.7392    3.2558    0.2991 H       1  UNL1        0.0314
     34 H           3.7583    2.4485   -0.7160 H       1  UNL1        0.0715
@<TRIPOS>BOND
     1     1     2   ar
     2     2     3   ar
     3     3     4    1
     4     4     5   ar
     5     5     6   ar
     6     6     7   ar
     7     7     8   ar
     8     8     9   ar
     9     8    10    1
    10    10    11    1
    11    11    12    1
    12    12    13    1
    13    13    14    1
    14    14    15    1
    15    15    16    1
    16     3    17   ar
    17    17    18   ar
    18    18     1   ar
    19     9     4   ar
    20    16     6    1
    21    13     7    1
    22     1    19    1
    23     5    20    1
    24     9    21    1
    25    10    22    1
    26    10    23    1
    27    11    24    1
    28    11    25    1
    29    12    26    1
    30    12    27    1
    31    14    28    1
    32    14    29    1
    33    15    30    1
    34    15    31    1
    35    16    32    1
    36    16    33    1
    37    17    34    1
