@<TRIPOS>MOLECULE
*****
 43 50 0 0 0
SMALL
GASTEIGER

@<TRIPOS>ATOM
      1 SI         -5.7777   -1.4043    2.3971 Si      1  UNL1        0.0000
      2 C          -6.3832   -0.1533    1.1638 C.2     1  UNL1        0.0000
      3 C          -5.3702    0.3180    0.4121 C.ar    1  UNL1        0.0000
      4 C          -5.5793    1.1644   -0.7364 C.ar    1  UNL1        0.0000
      5 C          -4.5499    1.4478   -1.5464 C.ar    1  UNL1        0.0000
      6 C          -3.1806    0.9927   -1.2354 C.ar    1  UNL1        0.0000
      7 C          -2.1421    1.3062   -2.1549 C.ar    1  UNL1        0.0000
      8 N          -2.2816    1.9108   -3.3506 N.ar    1  UNL1        0.0000
      9 S          -0.7737    2.0022   -4.0240 S.2     1  UNL1        0.0000
     10 N           0.1267    1.3067   -2.8283 N.ar    1  UNL1        0.0000
     11 C          -0.7141    0.9656   -1.8350 C.ar    1  UNL1        0.0000
     12 C          -0.3808    0.3808   -0.5798 C.ar    1  UNL1        0.0000
     13 C           0.9493    0.1124   -0.2176 C.ar    1  UNL1        0.0000
     14 O           2.0606    0.2850   -0.9870 O.2     1  UNL1        0.0000
     15 C           3.1647   -0.0901   -0.2650 C.ar    1  UNL1        0.0000
     16 C           2.7388   -0.4993    0.9880 C.ar    1  UNL1        0.0000
     17 C           1.3254   -0.3716    1.0240 C.ar    1  UNL1        0.0000
     18 C           0.3315   -0.5866    1.9827 C.ar    1  UNL1        0.0000
     19 C          -1.0100   -0.3403    1.6334 C.ar    1  UNL1        0.0000
     20 C          -1.4342    0.0925    0.3510 C.ar    1  UNL1        0.0000
     21 C          -2.8212    0.2971   -0.0285 C.ar    1  UNL1        0.0000
     22 C          -4.0138   -0.1840    0.7606 C.ar    1  UNL1        0.0000
     23 C          -4.0539   -1.1585    1.6966 C.2     1  UNL1        0.0000
     24 C           4.4949   -0.0291   -0.7993 C.ar    1  UNL1        0.0000
     25 S           4.7996    0.5415   -2.4239 S.2     1  UNL1        0.0000
     26 C           6.5125    0.3227   -2.3091 C.ar    1  UNL1        0.0000
     27 C           6.7768   -0.1593   -1.0825 C.ar    1  UNL1        0.0000
     28 O           8.0075   -0.4683   -0.5918 O.2     1  UNL1        0.0000
     29 C           7.6515   -0.9003    0.6711 C.ar    1  UNL1        0.0000
     30 C           6.2750   -0.8532    0.9264 C.ar    1  UNL1        0.0000
     31 C           5.6940   -0.3538   -0.2573 C.ar    1  UNL1        0.0000
     32 H          -6.2959   -2.7687    2.1383 H       1  UNL1        0.0000
     33 H          -5.8780   -0.9305    3.7983 H       1  UNL1        0.0000
     34 H          -7.4344    0.0588    1.0472 H       1  UNL1        0.0000
     35 H          -6.5796    1.5158   -0.9672 H       1  UNL1        0.0000
     36 H          -4.7060    2.0523   -2.4352 H       1  UNL1        0.0000
     37 H           3.3694   -0.8455    1.7929 H       1  UNL1        0.0000
     38 H           0.5824   -0.9219    2.9851 H       1  UNL1        0.0000
     39 H          -1.7283   -0.4489    2.4413 H       1  UNL1        0.0000
     40 H          -3.2634   -1.7947    2.0533 H       1  UNL1        0.0000
     41 H           7.2021    0.5483   -3.1090 H       1  UNL1        0.0000
     42 H           8.4907   -1.2126    1.2791 H       1  UNL1        0.0000
     43 H           5.7984   -1.1471    1.8495 H       1  UNL1        0.0000
@<TRIPOS>BOND
     1     1     2    1
     2     2     3    2
     3     3     4   ar
     4     4     5   ar
     5     5     6   ar
     6     6     7   ar
     7     7     8   ar
     8     8     9   ar
     9     9    10   ar
    10    10    11   ar
    11    11    12   ar
    12    12    13   ar
    13    13    14   ar
    14    14    15   ar
    15    15    16   ar
    16    16    17   ar
    17    17    18   ar
    18    18    19   ar
    19    19    20   ar
    20    20    21   ar
    21    21    22   ar
    22    22    23    2
    23    15    24    1
    24    24    25   ar
    25    25    26   ar
    26    26    27   ar
    27    27    28   ar
    28    28    29   ar
    29    29    30   ar
    30    30    31   ar
    31    23     1    1
    32    31    24   ar
    33    22     3   ar
    34    31    27   ar
    35    21     6   ar
    36    11     7   ar
    37    20    12   ar
    38    17    13   ar
    39     1    32    1
    40     1    33    1
    41     2    34    1
    42     4    35    1
    43     5    36    1
    44    16    37    1
    45    18    38    1
    46    19    39    1
    47    23    40    1
    48    26    41    1
    49    29    42    1
    50    30    43    1
