@<TRIPOS>MOLECULE
*****
 33 36 0 0 0
SMALL
GASTEIGER

@<TRIPOS>ATOM
      1 C           5.5721   -0.1654   -0.4966 C.ar    1  UNL1        0.2147
      2 N           4.4054    0.4198   -0.5795 N.ar    1  UNL1       -0.1942
      3 C           3.5515   -0.5588   -0.1082 C.ar    1  UNL1        0.2018
      4 C           2.1091   -0.3562   -0.0137 C.ar    1  UNL1        0.0231
      5 C           1.5387    0.8596   -0.4049 C.ar    1  UNL1       -0.0460
      6 C           0.1526    1.0765   -0.3060 C.ar    1  UNL1       -0.0254
      7 C          -0.7017    0.0597    0.1625 C.ar    1  UNL1        0.0362
      8 C          -0.1262   -1.1687    0.5414 C.ar    1  UNL1       -0.0254
      9 C           1.2649   -1.3633    0.4663 C.ar    1  UNL1       -0.0460
     10 C          -0.9930   -2.2855    1.0657 C.3     1  UNL1       -0.0245
     11 C          -2.4253   -2.1451    0.5708 C.3     1  UNL1       -0.0332
     12 C          -2.9316   -0.7414    0.8627 C.3     1  UNL1        0.0125
     13 N          -2.0719    0.2624    0.2485 N.pl3   1  UNL1       -0.3294
     14 C          -2.6739    1.4824   -0.2741 C.3     1  UNL1        0.0125
     15 C          -1.7524    2.6749   -0.0720 C.3     1  UNL1       -0.0332
     16 C          -0.4122    2.4051   -0.7406 C.3     1  UNL1       -0.0245
     17 N           4.1779   -1.6954    0.2472 N.ar    1  UNL1       -0.0564
     18 O           5.5209   -1.4295   -0.0126 O.2     1  UNL1       -0.3411
     19 H           6.5460    0.2193   -0.7575 H       1  UNL1        0.1283
     20 H           2.1758    1.6569   -0.7845 H       1  UNL1        0.0628
     21 H           1.6829   -2.3183    0.7805 H       1  UNL1        0.0628
     22 H          -0.9677   -2.2628    2.1619 H       1  UNL1        0.0314
     23 H          -0.5997   -3.2560    0.7410 H       1  UNL1        0.0314
     24 H          -3.0655   -2.8891    1.0573 H       1  UNL1        0.0283
     25 H          -2.4667   -2.3356   -0.5096 H       1  UNL1        0.0283
     26 H          -3.9559   -0.6500    0.4818 H       1  UNL1        0.0464
     27 H          -2.9738   -0.5670    1.9448 H       1  UNL1        0.0464
     28 H          -2.8966    1.3471   -1.3396 H       1  UNL1        0.0464
     29 H          -3.6263    1.6835    0.2308 H       1  UNL1        0.0464
     30 H          -1.6047    2.8499    1.0017 H       1  UNL1        0.0283
     31 H          -2.2052    3.5806   -0.4901 H       1  UNL1        0.0283
     32 H          -0.5287    2.3958   -1.8312 H       1  UNL1        0.0314
     33 H           0.2811    3.2147   -0.4841 H       1  UNL1        0.0314
@<TRIPOS>BOND
     1     1     2   ar
     2     2     3   ar
     3     3     4    1
     4     4     5   ar
     5     5     6   ar
     6     6     7   ar
     7     7     8   ar
     8     8     9   ar
     9     8    10    1
    10    10    11    1
    11    11    12    1
    12    12    13    1
    13    13    14    1
    14    14    15    1
    15    15    16    1
    16     3    17   ar
    17    17    18   ar
    18    18     1   ar
    19     9     4   ar
    20    16     6    1
    21    13     7    1
    22     1    19    1
    23     5    20    1
    24     9    21    1
    25    10    22    1
    26    10    23    1
    27    11    24    1
    28    11    25    1
    29    12    26    1
    30    12    27    1
    31    14    28    1
    32    14    29    1
    33    15    30    1
    34    15    31    1
    35    16    32    1
    36    16    33    1
