@<TRIPOS>MOLECULE
*****
 24 27 0 0 0
SMALL
GASTEIGER

@<TRIPOS>ATOM
      1 C          -5.3828    0.2908   -0.1174 C.ar    1  UNL1        0.2147
      2 N          -4.1982    0.6851   -0.5099 N.ar    1  UNL1       -0.1929
      3 C          -3.3765   -0.1226    0.2316 C.ar    1  UNL1        0.2181
      4 C          -1.8360   -0.0596    0.1429 C.ar    1  UNL1        0.0883
      5 C          -1.0812    0.7723   -0.6518 C.ar    1  UNL1       -0.0255
      6 C           0.2881    0.4765   -0.4007 C.ar    1  UNL1        0.0011
      7 C           1.5052    0.9785   -0.8950 C.ar    1  UNL1       -0.0418
      8 C           2.7250    0.4634   -0.4354 C.ar    1  UNL1        0.0208
      9 C           4.1000    0.7074   -0.6907 C.ar    1  UNL1       -0.0161
     10 C           4.8048   -0.1621    0.1111 C.ar    1  UNL1        0.0931
     11 O           3.9582   -0.9298    0.8473 O.2     1  UNL1       -0.4629
     12 C           2.6954   -0.5489    0.5145 C.ar    1  UNL1        0.1368
     13 C           1.5178   -1.0708    1.0266 C.ar    1  UNL1        0.0051
     14 C           0.3176   -0.5433    0.5550 C.ar    1  UNL1        0.0505
     15 N          -0.9858   -0.8495    0.8672 N.ar    1  UNL1       -0.3515
     16 N          -4.0090   -0.9787    1.0467 N.ar    1  UNL1       -0.0549
     17 O          -5.3583   -0.6994    0.8108 O.2     1  UNL1       -0.3410
     18 H          -6.3543    0.6432   -0.4291 H       1  UNL1        0.1283
     19 H          -1.4709    1.5127   -1.3386 H       1  UNL1        0.0646
     20 H           1.4978    1.7711   -1.6381 H       1  UNL1        0.0631
     21 H           4.5242    1.4280   -1.3747 H       1  UNL1        0.0655
     22 H           5.8577   -0.3503    0.2673 H       1  UNL1        0.1029
     23 H           1.5429   -1.8620    1.7680 H       1  UNL1        0.0675
     24 H          -1.2817   -1.5519    1.5316 H       1  UNL1        0.1660
@<TRIPOS>BOND
     1     1     2   ar
     2     2     3   ar
     3     3     4    1
     4     4     5   ar
     5     5     6   ar
     6     6     7   ar
     7     7     8   ar
     8     8     9   ar
     9     9    10   ar
    10    10    11   ar
    11    11    12   ar
    12    12    13   ar
    13    13    14   ar
    14    14    15   ar
    15     3    16   ar
    16    16    17   ar
    17    17     1   ar
    18    15     4   ar
    19    14     6   ar
    20    12     8   ar
    21     1    18    1
    22     5    19    1
    23     7    20    1
    24     9    21    1
    25    10    22    1
    26    13    23    1
    27    15    24    1
