@<TRIPOS>MOLECULE
*****
 23 26 0 0 0
SMALL
GASTEIGER

@<TRIPOS>ATOM
      1 C          -5.3999   -0.1143    0.5874 C.ar    1  UNL1        0.2148
      2 N          -4.1872   -0.1648    1.0778 N.ar    1  UNL1       -0.1916
      3 C          -3.4201   -0.0201   -0.0561 C.ar    1  UNL1        0.2372
      4 C          -1.8612   -0.0125   -0.0188 C.ar    1  UNL1        0.1763
      5 C          -1.0908   -0.1460    1.1219 C.ar    1  UNL1       -0.0047
      6 C           0.2654   -0.0854    0.7128 C.ar    1  UNL1        0.0244
      7 C           1.5155   -0.1524    1.3409 C.ar    1  UNL1       -0.0080
      8 C           2.6574   -0.0473    0.5538 C.ar    1  UNL1        0.1356
      9 O           3.9430   -0.0914    0.9968 O.2     1  UNL1       -0.4629
     10 C           4.7401    0.0484   -0.0954 C.ar    1  UNL1        0.0931
     11 C           3.9826    0.1822   -1.2372 C.ar    1  UNL1       -0.0160
     12 C           2.6256    0.1214   -0.8268 C.ar    1  UNL1        0.0236
     13 C           1.3750    0.1883   -1.4541 C.ar    1  UNL1       -0.0080
     14 C           0.2333    0.0831   -0.6666 C.ar    1  UNL1        0.1366
     15 O          -1.0498    0.1275   -1.1113 O.2     1  UNL1       -0.4516
     16 N          -4.1215    0.1133   -1.1913 N.ar    1  UNL1       -0.0532
     17 O          -5.4472    0.0500   -0.7583 O.2     1  UNL1       -0.3410
     18 H          -6.3456   -0.1847    1.1031 H       1  UNL1        0.1283
     19 H          -1.4710   -0.2718    2.1262 H       1  UNL1        0.0663
     20 H           1.6016   -0.2831    2.4146 H       1  UNL1        0.0661
     21 H           5.8034    0.0328    0.0999 H       1  UNL1        0.1029
     22 H           4.3621    0.3079   -2.2411 H       1  UNL1        0.0655
     23 H           1.2892    0.3190   -2.5279 H       1  UNL1        0.0661
@<TRIPOS>BOND
     1     1     2   ar
     2     2     3   ar
     3     3     4    1
     4     4     5   ar
     5     5     6   ar
     6     6     7   ar
     7     7     8   ar
     8     8     9   ar
     9     9    10   ar
    10    10    11   ar
    11    11    12   ar
    12    12    13   ar
    13    13    14   ar
    14    14    15   ar
    15     3    16   ar
    16    16    17   ar
    17    17     1   ar
    18    15     4   ar
    19    14     6   ar
    20    12     8   ar
    21     1    18    1
    22     5    19    1
    23     7    20    1
    24    10    21    1
    25    11    22    1
    26    13    23    1
