@<TRIPOS>MOLECULE
*****
 22 25 0 0 0
SMALL
GASTEIGER

@<TRIPOS>ATOM
      1 C           5.1803   -0.2012    0.2182 C.ar    1  UNL1        0.2147
      2 N           4.0585   -0.1797   -0.4561 N.ar    1  UNL1       -0.1929
      3 C           3.1339   -0.0632    0.5467 C.ar    1  UNL1        0.2182
      4 C           1.6152    0.0070    0.2800 C.ar    1  UNL1        0.0909
      5 C           0.9839   -0.0346   -0.9478 C.ar    1  UNL1       -0.0056
      6 C          -0.4027    0.0607   -0.6982 C.ar    1  UNL1        0.1090
      7 N          -1.4690    0.0683   -1.5419 N.ar    1  UNL1       -0.2387
      8 C          -2.6805    0.1764   -0.9319 C.ar    1  UNL1        0.1293
      9 C          -3.9919    0.2189   -1.4483 C.ar    1  UNL1        0.0039
     10 C          -4.8239    0.3358   -0.3552 C.ar    1  UNL1        0.0966
     11 O          -4.1086    0.3682    0.8044 O.2     1  UNL1       -0.4439
     12 C          -2.7966    0.2709    0.4546 C.ar    1  UNL1        0.2478
     13 N          -1.7579    0.2659    1.3154 N.ar    1  UNL1       -0.1914
     14 C          -0.5740    0.1578    0.6808 C.ar    1  UNL1        0.1610
     15 N           0.6614    0.1237    1.2599 N.ar    1  UNL1       -0.3352
     16 N           3.6426   -0.0139    1.7853 N.ar    1  UNL1       -0.0549
     17 O           5.0199   -0.1069    1.5631 O.2     1  UNL1       -0.3410
     18 H           6.1925   -0.2825   -0.1480 H       1  UNL1        0.1283
     19 H           1.4654   -0.1233   -1.9122 H       1  UNL1        0.0662
     20 H          -4.2897    0.1703   -2.4847 H       1  UNL1        0.0671
     21 H          -5.8969    0.4047   -0.2373 H       1  UNL1        0.1031
     22 H           0.8381    0.1765    2.2534 H       1  UNL1        0.1675
@<TRIPOS>BOND
     1     1     2   ar
     2     2     3   ar
     3     3     4    1
     4     4     5   ar
     5     5     6   ar
     6     6     7   ar
     7     7     8   ar
     8     8     9   ar
     9     9    10   ar
    10    10    11   ar
    11    11    12   ar
    12    12    13   ar
    13    13    14   ar
    14    14    15   ar
    15     3    16   ar
    16    16    17   ar
    17    17     1   ar
    18    15     4   ar
    19    14     6   ar
    20    12     8   ar
    21     1    18    1
    22     5    19    1
    23     9    20    1
    24    10    21    1
    25    15    22    1
