@<TRIPOS>MOLECULE
*****
 20 22 0 0 0
SMALL
GASTEIGER

@<TRIPOS>ATOM
      1 C          -3.8153   -0.9319   -0.5467 C.ar    1  UNL1        0.0654
      2 N          -2.5112   -1.0505   -0.6500 N.ar    1  UNL1       -0.2474
      3 C          -1.8809   -0.0123    0.0274 C.ar    1  UNL1        0.0782
      4 C          -0.4180    0.0778    0.0595 C.ar    1  UNL1        0.0031
      5 C           0.2584    1.1126    0.7338 C.ar    1  UNL1       -0.0504
      6 C           1.6600    1.1976    0.7638 C.ar    1  UNL1       -0.0341
      7 C           2.3545    0.1979    0.0869 C.ar    1  UNL1        0.0858
      8 N           3.6825   -0.0579   -0.1080 N.ar    1  UNL1       -0.2571
      9 N           3.8782   -1.1627   -0.8452 N.ar    1  UNL1       -0.0673
     10 N           2.6828   -1.6540   -1.1488 N.ar    1  UNL1       -0.1296
     11 C           1.7329   -0.8401   -0.5905 C.ar    1  UNL1        0.1131
     12 C           0.3334   -0.9091   -0.6099 C.ar    1  UNL1       -0.0232
     13 C          -2.7504    0.8767    0.6340 C.ar    1  UNL1        0.0031
     14 S          -4.3798    0.4092    0.3544 S.2     1  UNL1       -0.0833
     15 H          -4.4971   -1.6379   -1.0026 H       1  UNL1        0.0907
     16 H          -0.2943    1.8880    1.2591 H       1  UNL1        0.0625
     17 H           2.1655    2.0015    1.2880 H       1  UNL1        0.0639
     18 H           4.4894    0.4580    0.2193 H       1  UNL1        0.1907
     19 H          -0.1498   -1.7235   -1.1415 H       1  UNL1        0.0646
     20 H          -2.5408    1.7604    1.2168 H       1  UNL1        0.0715
@<TRIPOS>BOND
     1     1     2   ar
     2     2     3   ar
     3     3     4    1
     4     4     5   ar
     5     5     6   ar
     6     6     7   ar
     7     7     8   ar
     8     8     9   ar
     9     9    10   ar
    10    10    11   ar
    11    11    12   ar
    12     3    13   ar
    13    13    14   ar
    14    14     1   ar
    15    12     4   ar
    16    11     7   ar
    17     1    15    1
    18     5    16    1
    19     6    17    1
    20     8    18    1
    21    12    19    1
    22    13    20    1
