@<TRIPOS>MOLECULE
*****
 19 21 0 0 0
SMALL
GASTEIGER

@<TRIPOS>ATOM
      1 C          -4.0215    0.0099   -0.4328 C.ar    1  UNL1        0.2147
      2 N          -2.9324   -0.5762   -0.0058 N.ar    1  UNL1       -0.1942
      3 C          -1.9512    0.3212   -0.3780 C.ar    1  UNL1        0.2019
      4 C          -0.5360    0.0871   -0.1032 C.ar    1  UNL1        0.0246
      5 C          -0.1357   -1.0871    0.5628 C.ar    1  UNL1       -0.0488
      6 C           1.2093   -1.3606    0.8510 C.ar    1  UNL1       -0.0341
      7 C           2.1327   -0.4015    0.4399 C.ar    1  UNL1        0.0858
      8 N           3.4927   -0.3066    0.5341 N.ar    1  UNL1       -0.2571
      9 N           3.9561    0.8262   -0.0181 N.ar    1  UNL1       -0.0673
     10 N           2.9104    1.4972   -0.4856 N.ar    1  UNL1       -0.1296
     11 C           1.7822    0.7684   -0.2186 C.ar    1  UNL1        0.1131
     12 C           0.4337    1.0277   -0.4996 C.ar    1  UNL1       -0.0216
     13 N          -2.4258    1.4108   -1.0069 N.ar    1  UNL1       -0.0564
     14 O          -3.8030    1.2003   -1.0416 O.2     1  UNL1       -0.3411
     15 H          -5.0456   -0.3236   -0.3645 H       1  UNL1        0.1283
     16 H          -0.8873   -1.8154    0.8696 H       1  UNL1        0.0625
     17 H           1.5033   -2.2694    1.3648 H       1  UNL1        0.0639
     18 H           4.1532   -0.9528    0.9474 H       1  UNL1        0.1907
     19 H           0.1649    1.9445   -1.0149 H       1  UNL1        0.0647
@<TRIPOS>BOND
     1     1     2   ar
     2     2     3   ar
     3     3     4    1
     4     4     5   ar
     5     5     6   ar
     6     6     7   ar
     7     7     8   ar
     8     8     9   ar
     9     9    10   ar
    10    10    11   ar
    11    11    12   ar
    12     3    13   ar
    13    13    14   ar
    14    14     1   ar
    15    12     4   ar
    16    11     7   ar
    17     1    15    1
    18     5    16    1
    19     6    17    1
    20     8    18    1
    21    12    19    1
