@<TRIPOS>MOLECULE
*****
 15 16 0 0 0
SMALL
GASTEIGER

@<TRIPOS>ATOM
      1 C           2.8678   -0.4506   -0.5790 C.ar    1  UNL1        0.0654
      2 N           1.5889   -0.6899   -0.7652 N.ar    1  UNL1       -0.2473
      3 C           0.8419    0.1149    0.0796 C.ar    1  UNL1        0.0810
      4 C          -0.6111   -0.0001    0.0263 C.ar    1  UNL1        0.0380
      5 C          -1.5504    0.7173    0.7912 C.ar    1  UNL1        0.0583
      6 N          -2.8105    0.3755    0.5006 N.ar    1  UNL1       -0.1817
      7 N          -2.6693   -0.5634   -0.4532 N.ar    1  UNL1       -0.2841
      8 C          -1.3701   -0.8234   -0.7720 C.ar    1  UNL1        0.0315
      9 C           1.5765    0.9534    0.8942 C.ar    1  UNL1        0.0032
     10 S           3.2534    0.7335    0.5996 S.2     1  UNL1       -0.0833
     11 H           3.6391   -0.9680   -1.1346 H       1  UNL1        0.0907
     12 H          -1.3820    1.4731    1.5469 H       1  UNL1        0.0854
     13 H          -3.5067   -0.9845   -0.8421 H       1  UNL1        0.1882
     14 H          -1.0984   -1.5536   -1.5207 H       1  UNL1        0.0830
     15 H           1.2309    1.6659    1.6284 H       1  UNL1        0.0715
@<TRIPOS>BOND
     1     1     2   ar
     2     2     3   ar
     3     3     4    1
     4     4     5   ar
     5     5     6   ar
     6     6     7   ar
     7     7     8   ar
     8     3     9   ar
     9     9    10   ar
    10    10     1   ar
    11     8     4   ar
    12     1    11    1
    13     5    12    1
    14     7    13    1
    15     8    14    1
    16     9    15    1
