@<TRIPOS>MOLECULE
*****
 14 15 0 0 0
SMALL
GASTEIGER

@<TRIPOS>ATOM
      1 C           2.9402    0.0130    0.5026 C.ar    1  UNL1        0.2147
      2 N           1.7311    0.0163    1.0053 N.ar    1  UNL1       -0.1941
      3 C           0.9591    0.0007   -0.1294 C.ar    1  UNL1        0.2048
      4 C          -0.4900   -0.0017   -0.0421 C.ar    1  UNL1        0.0596
      5 C          -1.2394    0.0110    1.1477 C.ar    1  UNL1        0.0599
      6 N          -2.5572    0.0051    0.9160 N.ar    1  UNL1       -0.1816
      7 N          -2.6419   -0.0114   -0.4266 N.ar    1  UNL1       -0.2840
      8 C          -1.4277   -0.0161   -1.0489 C.ar    1  UNL1        0.0331
      9 N           1.6456   -0.0117   -1.2809 N.ar    1  UNL1       -0.0563
     10 O           2.9769   -0.0034   -0.8544 O.2     1  UNL1       -0.3411
     11 H           3.8900    0.0215    1.0157 H       1  UNL1        0.1283
     12 H          -0.8834    0.0243    2.1704 H       1  UNL1        0.0855
     13 H          -3.5646   -0.0187   -0.8495 H       1  UNL1        0.1882
     14 H          -1.3388   -0.0290   -2.1258 H       1  UNL1        0.0831
@<TRIPOS>BOND
     1     1     2   ar
     2     2     3   ar
     3     3     4    1
     4     4     5   ar
     5     5     6   ar
     6     6     7   ar
     7     7     8   ar
     8     3     9   ar
     9     9    10   ar
    10    10     1   ar
    11     8     4   ar
    12     1    11    1
    13     5    12    1
    14     7    13    1
    15     8    14    1
