@<TRIPOS>MOLECULE
*****
 21 24 0 0 0
SMALL
GASTEIGER

@<TRIPOS>ATOM
      1 C          -5.2273   -0.0381   -0.0972 C.ar    1  UNL1        0.2148
      2 N          -4.0672   -0.1283    0.5014 N.ar    1  UNL1       -0.1902
      3 C          -3.1916    0.1230   -0.5352 C.ar    1  UNL1        0.2570
      4 C          -1.6227    0.1327   -0.3399 C.ar    1  UNL1        0.2699
      5 N          -0.7534    0.3706   -1.3150 N.ar    1  UNL1       -0.2061
      6 C           0.4700    0.2809   -0.7091 C.ar    1  UNL1        0.1136
      7 C           1.7666    0.4306   -1.2079 C.ar    1  UNL1        0.0120
      8 C           2.8173    0.2735   -0.3145 C.ar    1  UNL1        0.1573
      9 O           4.1549    0.3705   -0.5608 O.2     1  UNL1       -0.4424
     10 C           4.7208    0.1278    0.6568 C.ar    1  UNL1        0.1831
     11 N           3.8781   -0.1108    1.6397 N.ar    1  UNL1       -0.2160
     12 C           2.6522   -0.0211    1.0332 C.ar    1  UNL1        0.1129
     13 C           1.3550   -0.1705    1.5301 C.ar    1  UNL1        0.0120
     14 C           0.3052   -0.0130    0.6354 C.ar    1  UNL1        0.1581
     15 O          -1.0284   -0.1102    0.8832 O.2     1  UNL1       -0.4328
     16 N          -3.7873    0.3568   -1.7166 N.ar    1  UNL1       -0.0514
     17 O          -5.1468    0.2485   -1.4202 O.2     1  UNL1       -0.3409
     18 H          -6.2172   -0.1594    0.3162 H       1  UNL1        0.1283
     19 H           1.9424    0.6605   -2.2522 H       1  UNL1        0.0677
     20 H           5.8009    0.1545    0.6982 H       1  UNL1        0.1255
     21 H           1.1784   -0.4003    2.5743 H       1  UNL1        0.0677
@<TRIPOS>BOND
     1     1     2   ar
     2     2     3   ar
     3     3     4    1
     4     4     5   ar
     5     5     6   ar
     6     6     7   ar
     7     7     8   ar
     8     8     9   ar
     9     9    10   ar
    10    10    11   ar
    11    11    12   ar
    12    12    13   ar
    13    13    14   ar
    14    14    15   ar
    15     3    16   ar
    16    16    17   ar
    17    17     1   ar
    18    15     4   ar
    19    14     6   ar
    20    12     8   ar
    21     1    18    1
    22     7    19    1
    23    10    20    1
    24    13    21    1
