@<TRIPOS>MOLECULE
*****
 22 25 0 0 0
SMALL
GASTEIGER

@<TRIPOS>ATOM
      1 C          -4.9943    0.1406    1.5247 C.ar    1  UNL1        0.0655
      2 N          -3.6832    0.0704    1.5554 N.ar    1  UNL1       -0.2454
      3 C          -3.1837    0.0985    0.2603 C.ar    1  UNL1        0.1030
      4 C          -1.6236    0.0283   -0.0232 C.ar    1  UNL1        0.1281
      5 N          -0.7494   -0.0588    0.9572 N.ar    1  UNL1       -0.2374
      6 C           0.5344   -0.1050    0.4497 C.ar    1  UNL1        0.0801
      7 C           1.7153   -0.1985    1.1969 C.ar    1  UNL1       -0.0194
      8 C           2.9535   -0.2367    0.5566 C.ar    1  UNL1        0.0410
      9 S           4.5361   -0.3480    1.2251 S.2     1  UNL1       -0.0753
     10 C           5.1936   -0.3163   -0.3553 C.ar    1  UNL1        0.0659
     11 N           4.3338   -0.2296   -1.3447 N.ar    1  UNL1       -0.2474
     12 C           3.0476   -0.1833   -0.8346 C.ar    1  UNL1        0.0793
     13 C           1.8658   -0.0899   -1.5809 C.ar    1  UNL1       -0.0194
     14 C           0.6281   -0.0517   -0.9394 C.ar    1  UNL1        0.0417
     15 S          -0.9526    0.0593   -1.6046 S.2     1  UNL1       -0.0656
     16 C          -4.1428    0.1904   -0.7304 C.ar    1  UNL1        0.0051
     17 S          -5.7094    0.2434   -0.0295 S.2     1  UNL1       -0.0832
     18 H          -5.5937    0.1344    2.4260 H       1  UNL1        0.0907
     19 H           1.6499   -0.2405    2.2807 H       1  UNL1        0.0651
     20 H           6.2618   -0.3654   -0.5230 H       1  UNL1        0.0907
     21 H           1.9304   -0.0478   -2.6646 H       1  UNL1        0.0651
     22 H          -4.0178    0.2288   -1.8024 H       1  UNL1        0.0716
@<TRIPOS>BOND
     1     1     2   ar
     2     2     3   ar
     3     3     4    1
     4     4     5   ar
     5     5     6   ar
     6     6     7   ar
     7     7     8   ar
     8     8     9   ar
     9     9    10   ar
    10    10    11   ar
    11    11    12   ar
    12    12    13   ar
    13    13    14   ar
    14    14    15   ar
    15     3    16   ar
    16    16    17   ar
    17    17     1   ar
    18    15     4   ar
    19    14     6   ar
    20    12     8   ar
    21     1    18    1
    22     7    19    1
    23    10    20    1
    24    13    21    1
    25    16    22    1
