@<TRIPOS>MOLECULE
*****
 38 42 0 0 0
SMALL
GASTEIGER

@<TRIPOS>ATOM
      1 SI         -5.5193    2.1002   -1.0415 Si      1  UNL1        0.0000
      2 C          -5.8847    0.3252   -0.5851 C.2     1  UNL1        0.0000
      3 C          -4.7468   -0.3525   -0.3426 C.ar    1  UNL1        0.0000
      4 C          -4.6944   -1.7474    0.0343 C.ar    1  UNL1        0.0000
      5 C          -3.5087   -2.3401    0.2565 C.ar    1  UNL1        0.0000
      6 C          -2.2292   -1.6024    0.1270 C.ar    1  UNL1        0.0000
      7 C          -1.0254   -2.2769    0.3721 C.ar    1  UNL1        0.0000
      8 C           0.2093   -1.6161    0.2608 C.ar    1  UNL1        0.0000
      9 C           1.4182   -2.2789    0.5031 C.ar    1  UNL1        0.0000
     10 C           2.6441   -1.6084    0.3887 C.ar    1  UNL1        0.0000
     11 C           2.7150   -0.2517    0.0287 C.ar    1  UNL1        0.0000
     12 C           1.4838    0.3967   -0.2109 C.ar    1  UNL1        0.0000
     13 C           0.2403   -0.2566   -0.1021 C.ar    1  UNL1        0.0000
     14 C          -0.9673    0.4200   -0.3480 C.ar    1  UNL1        0.0000
     15 C          -2.2018   -0.2346   -0.2383 C.ar    1  UNL1        0.0000
     16 C          -3.5013    0.4340   -0.4870 C.ar    1  UNL1        0.0000
     17 C          -3.6959    1.7215   -0.8427 C.2     1  UNL1        0.0000
     18 C           3.9996    0.4906   -0.1018 C.ar    1  UNL1        0.0000
     19 C           5.2570   -0.0766    0.1177 C.ar    1  UNL1        0.0000
     20 C           6.4060    0.7028   -0.0300 C.ar    1  UNL1        0.0000
     21 C           6.2853    2.0346   -0.3939 C.ar    1  UNL1        0.0000
     22 C           5.0139    2.5331   -0.5957 C.ar    1  UNL1        0.0000
     23 N           3.8876    1.7987   -0.4589 N.ar    1  UNL1        0.0000
     24 H          -6.0130    3.0606   -0.0251 H       1  UNL1        0.0000
     25 H          -5.8838    2.4117   -2.4449 H       1  UNL1        0.0000
     26 H          -6.8943   -0.0498   -0.5384 H       1  UNL1        0.0000
     27 H          -5.6208   -2.3027    0.1338 H       1  UNL1        0.0000
     28 H          -3.4672   -3.3866    0.5394 H       1  UNL1        0.0000
     29 H          -1.0464   -3.3276    0.6528 H       1  UNL1        0.0000
     30 H           1.4213   -3.3298    0.7850 H       1  UNL1        0.0000
     31 H           3.5406   -2.1864    0.5915 H       1  UNL1        0.0000
     32 H           1.4929    1.4501   -0.4929 H       1  UNL1        0.0000
     33 H          -0.9330    1.4695   -0.6276 H       1  UNL1        0.0000
     34 H          -2.9576    2.4879   -1.0088 H       1  UNL1        0.0000
     35 H           5.3755   -1.1147    0.4027 H       1  UNL1        0.0000
     36 H           7.3867    0.2671    0.1395 H       1  UNL1        0.0000
     37 H           7.1569    2.6668   -0.5169 H       1  UNL1        0.0000
     38 H           4.8569    3.5689   -0.8821 H       1  UNL1        0.0000
@<TRIPOS>BOND
     1     1     2    1
     2     2     3    2
     3     3     4   ar
     4     4     5   ar
     5     5     6   ar
     6     6     7   ar
     7     7     8   ar
     8     8     9   ar
     9     9    10   ar
    10    10    11   ar
    11    11    12   ar
    12    12    13   ar
    13    13    14   ar
    14    14    15   ar
    15    15    16   ar
    16    16    17    2
    17    11    18    1
    18    18    19   ar
    19    19    20   ar
    20    20    21   ar
    21    21    22   ar
    22    22    23   ar
    23    17     1    1
    24    23    18   ar
    25    16     3   ar
    26    15     6   ar
    27    13     8   ar
    28     1    24    1
    29     1    25    1
    30     2    26    1
    31     4    27    1
    32     5    28    1
    33     7    29    1
    34     9    30    1
    35    10    31    1
    36    12    32    1
    37    14    33    1
    38    17    34    1
    39    19    35    1
    40    20    36    1
    41    21    37    1
    42    22    38    1
