@<TRIPOS>MOLECULE
*****
 21 24 0 0 0
SMALL
GASTEIGER

@<TRIPOS>ATOM
      1 C           5.3324    0.6401   -0.5741 C.ar    1  UNL1        0.2147
      2 N           4.1044    0.9112   -0.9356 N.ar    1  UNL1       -0.1924
      3 C           3.3699    0.1842   -0.0206 C.ar    1  UNL1        0.2270
      4 C           1.7870    0.1594   -0.0103 C.ar    1  UNL1        0.1497
      5 N           1.0893   -0.5361    0.8652 N.ar    1  UNL1       -0.2357
      6 C          -0.2627   -0.3678    0.6329 C.ar    1  UNL1        0.0802
      7 C          -1.3049   -0.9529    1.3632 C.ar    1  UNL1       -0.0194
      8 C          -2.6334   -0.6994    1.0228 C.ar    1  UNL1        0.0410
      9 S          -4.0848   -1.2810    1.7433 S.2     1  UNL1       -0.0753
     10 C          -4.9960   -0.3913    0.5990 C.ar    1  UNL1        0.0659
     11 N          -4.3111    0.3058   -0.2788 N.ar    1  UNL1       -0.2474
     12 C          -2.9569    0.1373   -0.0460 C.ar    1  UNL1        0.0793
     13 C          -1.9140    0.7219   -0.7758 C.ar    1  UNL1       -0.0194
     14 C          -0.5857    0.4679   -0.4348 C.ar    1  UNL1        0.0417
     15 S           0.8638    1.0483   -1.1537 S.2     1  UNL1       -0.0640
     16 N           4.1153   -0.5016    0.8621 N.ar    1  UNL1       -0.0543
     17 O           5.4243   -0.1951    0.4898 O.2     1  UNL1       -0.3410
     18 H           6.2603    0.9872   -1.0033 H       1  UNL1        0.1283
     19 H          -1.0621   -1.6058    2.1972 H       1  UNL1        0.0651
     20 H          -6.0782   -0.4070    0.6043 H       1  UNL1        0.0907
     21 H          -2.1570    1.3747   -1.6097 H       1  UNL1        0.0651
@<TRIPOS>BOND
     1     1     2   ar
     2     2     3   ar
     3     3     4    1
     4     4     5   ar
     5     5     6   ar
     6     6     7   ar
     7     7     8   ar
     8     8     9   ar
     9     9    10   ar
    10    10    11   ar
    11    11    12   ar
    12    12    13   ar
    13    13    14   ar
    14    14    15   ar
    15     3    16   ar
    16    16    17   ar
    17    17     1   ar
    18    15     4   ar
    19    14     6   ar
    20    12     8   ar
    21     1    18    1
    22     7    19    1
    23    10    20    1
    24    13    21    1
