@<TRIPOS>MOLECULE
*****
 43 48 0 0 0
SMALL
GASTEIGER

@<TRIPOS>ATOM
      1 C          -1.3162    1.9251   -0.8310 C.ar    1  UNL1        0.0432
      2 N          -2.6947    1.9610   -0.7522 N.ar    1  UNL1       -0.2467
      3 C          -3.1508    0.8073   -0.3062 C.ar    1  UNL1        0.1094
      4 S          -1.9337   -0.3403    0.1003 S.2     1  UNL1       -0.0672
      5 C          -0.7155    0.7568   -0.4051 C.ar    1  UNL1        0.0400
      6 C           0.6854    0.3940   -0.3366 C.ar    1  UNL1        0.0010
      7 C           1.2476   -0.7935   -0.8637 C.ar    1  UNL1       -0.0522
      8 C           2.6497   -1.1213   -0.7974 C.ar    1  UNL1       -0.0513
      9 C           3.6547   -0.3051   -0.1996 C.ar    1  UNL1        0.0111
     10 C           5.0749   -0.6401   -0.1281 C.ar    1  UNL1        0.0716
     11 C           5.5187   -1.9393    0.1218 C.ar    1  UNL1       -0.0357
     12 C           6.8875   -2.1991    0.1596 C.ar    1  UNL1       -0.0583
     13 C           7.7825   -1.1606   -0.0556 C.ar    1  UNL1       -0.0436
     14 C           7.2679    0.0997   -0.2978 C.ar    1  UNL1        0.0283
     15 N           5.9460    0.3784   -0.3368 N.ar    1  UNL1       -0.2550
     16 C           3.0675    0.8608    0.3123 C.ar    1  UNL1        0.0296
     17 C           3.6734    1.8916    0.9864 C.ar    1  UNL1        0.1000
     18 O           2.7435    2.8247    1.3484 O.2     1  UNL1       -0.4698
     19 C           1.5280    2.3886    0.9032 C.ar    1  UNL1        0.1000
     20 C           1.6727    1.1900    0.2506 C.ar    1  UNL1        0.0287
     21 C          -4.5570    0.5342   -0.0648 C.ar    1  UNL1        0.0178
     22 C          -5.4322    1.4690    0.5517 C.ar    1  UNL1       -0.0513
     23 C          -6.8310    1.2328    0.8028 C.ar    1  UNL1       -0.0604
     24 C          -7.5106    0.0443    0.4529 C.ar    1  UNL1       -0.0510
     25 C          -6.6434   -0.8420   -0.1712 C.ar    1  UNL1        0.0205
     26 C          -6.9591   -2.0747   -0.6744 C.ar    1  UNL1        0.0994
     27 O          -5.8468   -2.6304   -1.2431 O.2     1  UNL1       -0.4698
     28 C          -4.8175   -1.7391   -1.0975 C.ar    1  UNL1        0.1000
     29 C          -5.2523   -0.6254   -0.4232 C.ar    1  UNL1        0.0295
     30 H          -0.7920    2.7940   -1.2118 H       1  UNL1        0.0841
     31 H           0.5938   -1.5073   -1.3674 H       1  UNL1        0.0624
     32 H           2.9528   -2.0613   -1.2627 H       1  UNL1        0.0624
     33 H           4.8147   -2.7458    0.2999 H       1  UNL1        0.0639
     34 H           7.2491   -3.2041    0.3574 H       1  UNL1        0.0619
     35 H           8.8534   -1.3278   -0.0341 H       1  UNL1        0.0633
     36 H           7.9235    0.9480   -0.4733 H       1  UNL1        0.0830
     37 H           4.6900    2.1106    1.2825 H       1  UNL1        0.1036
     38 H           0.6950    3.0351    1.1412 H       1  UNL1        0.1036
     39 H          -5.0208    2.4332    0.8588 H       1  UNL1        0.0624
     40 H          -7.3986    2.0278    1.2891 H       1  UNL1        0.0618
     41 H          -8.5624   -0.1199    0.6391 H       1  UNL1        0.0625
     42 H          -7.8581   -2.6721   -0.7277 H       1  UNL1        0.1035
     43 H          -3.8795   -2.0576   -1.5293 H       1  UNL1        0.1036
@<TRIPOS>BOND
     1     1     2   ar
     2     2     3   ar
     3     3     4   ar
     4     4     5   ar
     5     5     6    1
     6     6     7   ar
     7     7     8   ar
     8     8     9   ar
     9     9    10    1
    10    10    11   ar
    11    11    12   ar
    12    12    13   ar
    13    13    14   ar
    14    14    15   ar
    15     9    16   ar
    16    16    17   ar
    17    17    18   ar
    18    18    19   ar
    19    19    20   ar
    20     3    21    1
    21    21    22   ar
    22    22    23   ar
    23    23    24   ar
    24    24    25   ar
    25    25    26   ar
    26    26    27   ar
    27    27    28   ar
    28    28    29   ar
    29     5     1   ar
    30    20     6   ar
    31    29    21   ar
    32    15    10   ar
    33    20    16   ar
    34    29    25   ar
    35     1    30    1
    36     7    31    1
    37     8    32    1
    38    11    33    1
    39    12    34    1
    40    13    35    1
    41    14    36    1
    42    17    37    1
    43    19    38    1
    44    22    39    1
    45    23    40    1
    46    24    41    1
    47    26    42    1
    48    28    43    1
