@<TRIPOS>MOLECULE
*****
 35 39 0 0 0
SMALL
GASTEIGER

@<TRIPOS>ATOM
      1 C           0.1434    1.6302   -0.6819 C.ar    1  UNL1        0.0432
      2 N           1.4621    1.4169   -1.0346 N.ar    1  UNL1       -0.2466
      3 C           1.9413    0.3718   -0.3840 C.ar    1  UNL1        0.1109
      4 S           0.7935   -0.4454    0.6091 S.2     1  UNL1       -0.0671
      5 C          -0.3944    0.7181    0.2017 C.ar    1  UNL1        0.0400
      6 C          -1.7421    0.6416    0.7648 C.ar    1  UNL1       -0.0021
      7 C          -1.9198    1.0399    2.1007 C.ar    1  UNL1       -0.0529
      8 C          -3.1808    1.0157    2.6862 C.ar    1  UNL1       -0.0606
      9 C          -4.2804    0.5960    1.9425 C.ar    1  UNL1       -0.0540
     10 C          -4.1375    0.1909    0.6066 C.ar    1  UNL1       -0.0173
     11 C          -5.2609   -0.2308   -0.1242 C.ar    1  UNL1       -0.0540
     12 C          -5.1428   -0.6432   -1.4504 C.ar    1  UNL1       -0.0612
     13 C          -3.8978   -0.6422   -2.0641 C.ar    1  UNL1       -0.0611
     14 C          -2.7710   -0.2253   -1.3518 C.ar    1  UNL1       -0.0534
     15 C          -2.8578    0.2057   -0.0052 C.ar    1  UNL1       -0.0096
     16 C           3.2993   -0.1310   -0.5681 C.ar    1  UNL1        0.0353
     17 C           3.9267   -0.0930   -1.8377 C.ar    1  UNL1       -0.0499
     18 C           5.2415   -0.5536   -2.0798 C.ar    1  UNL1       -0.0590
     19 C           6.0584   -1.0852   -1.0710 C.ar    1  UNL1       -0.0335
     20 C           5.5012   -1.1293    0.2295 C.ar    1  UNL1        0.1005
     21 N           6.1280   -1.5870    1.3239 N.ar    1  UNL1       -0.1908
     22 S           5.0673   -1.4040    2.5846 S.2     1  UNL1        0.1165
     23 N           3.7664   -0.7411    1.8022 N.ar    1  UNL1       -0.1901
     24 C           4.0918   -0.6386    0.5005 C.ar    1  UNL1        0.1095
     25 H          -0.3892    2.4714   -1.1094 H       1  UNL1        0.0841
     26 H          -1.0692    1.3761    2.6910 H       1  UNL1        0.0624
     27 H          -3.3078    1.3252    3.7203 H       1  UNL1        0.0618
     28 H          -5.2590    0.5852    2.4187 H       1  UNL1        0.0624
     29 H          -6.2453   -0.2431    0.3394 H       1  UNL1        0.0624
     30 H          -6.0224   -0.9677   -1.9999 H       1  UNL1        0.0618
     31 H          -3.7975   -0.9679   -3.0962 H       1  UNL1        0.0618
     32 H          -1.8121   -0.2485   -1.8654 H       1  UNL1        0.0624
     33 H           3.3641    0.3146   -2.6808 H       1  UNL1        0.0625
     34 H           5.6373   -0.4886   -3.0939 H       1  UNL1        0.0618
     35 H           7.0655   -1.4338   -1.2666 H       1  UNL1        0.0640
@<TRIPOS>BOND
     1     1     2   ar
     2     2     3   ar
     3     3     4   ar
     4     4     5   ar
     5     5     6    1
     6     6     7   ar
     7     7     8   ar
     8     8     9   ar
     9     9    10   ar
    10    10    11   ar
    11    11    12   ar
    12    12    13   ar
    13    13    14   ar
    14    14    15   ar
    15     3    16    1
    16    16    17   ar
    17    17    18   ar
    18    18    19   ar
    19    19    20   ar
    20    20    21   ar
    21    21    22   ar
    22    22    23   ar
    23    23    24   ar
    24     5     1   ar
    25    15     6   ar
    26    24    16   ar
    27    15    10   ar
    28    24    20   ar
    29     1    25    1
    30     7    26    1
    31     8    27    1
    32     9    28    1
    33    11    29    1
    34    12    30    1
    35    13    31    1
    36    14    32    1
    37    17    33    1
    38    18    34    1
    39    19    35    1
