@<TRIPOS>MOLECULE
*****
 41 46 0 0 0
SMALL
GASTEIGER

@<TRIPOS>ATOM
      1 C           2.0464    1.3240    1.1244 C.ar    1  UNL1        0.0452
      2 N           3.4185    1.4779    1.0472 N.ar    1  UNL1       -0.2466
      3 C           3.9563    0.4300    0.4526 C.ar    1  UNL1        0.1109
      4 S           2.8236   -0.7355   -0.1102 S.2     1  UNL1       -0.0651
      5 C           1.5272    0.1783    0.5516 C.ar    1  UNL1        0.0643
      6 C           0.1585   -0.2597    0.4625 C.ar    1  UNL1        0.1169
      7 N          -0.1993   -1.3556   -0.1775 N.ar    1  UNL1       -0.2461
      8 C          -1.5676   -1.5274   -0.0968 C.ar    1  UNL1        0.0432
      9 C          -2.2511   -0.5539    0.6011 C.ar    1  UNL1        0.0400
     10 S          -1.1411    0.6128    1.1846 S.2     1  UNL1       -0.0666
     11 C          -3.6828   -0.4230    0.8677 C.ar    1  UNL1       -0.0021
     12 C          -4.1500   -0.7835    2.1429 C.ar    1  UNL1       -0.0529
     13 C          -5.5034   -0.7003    2.4512 C.ar    1  UNL1       -0.0606
     14 C          -6.4062   -0.2587    1.4877 C.ar    1  UNL1       -0.0540
     15 C          -5.9724    0.1077    0.2044 C.ar    1  UNL1       -0.0173
     16 C          -6.9012    0.5507   -0.7520 C.ar    1  UNL1       -0.0540
     17 C          -6.4932    0.9233   -2.0317 C.ar    1  UNL1       -0.0612
     18 C          -5.1491    0.8597   -2.3725 C.ar    1  UNL1       -0.0611
     19 C          -4.2129    0.4212   -1.4334 C.ar    1  UNL1       -0.0534
     20 C          -4.5953    0.0314   -0.1263 C.ar    1  UNL1       -0.0096
     21 C           5.3854    0.3089    0.1831 C.ar    1  UNL1        0.0353
     22 C           6.1578    1.4348   -0.1937 C.ar    1  UNL1       -0.0499
     23 C           7.5460    1.3830   -0.4574 C.ar    1  UNL1       -0.0590
     24 C           8.2955    0.2013   -0.3571 C.ar    1  UNL1       -0.0335
     25 C           7.5882   -0.9586    0.0407 C.ar    1  UNL1        0.1005
     26 N           8.1288   -2.1752    0.2072 N.ar    1  UNL1       -0.1908
     27 S           6.8982   -3.1739    0.6945 S.2     1  UNL1        0.1165
     28 N           5.6269   -2.1122    0.7159 N.ar    1  UNL1       -0.1901
     29 C           6.0995   -0.9145    0.3254 C.ar    1  UNL1        0.1095
     30 H           1.4711    2.1010    1.6137 H       1  UNL1        0.0842
     31 H          -2.0212   -2.3887   -0.5731 H       1  UNL1        0.0841
     32 H          -3.4558   -1.1366    2.9032 H       1  UNL1        0.0624
     33 H          -5.8559   -0.9809    3.4403 H       1  UNL1        0.0618
     34 H          -7.4614   -0.2017    1.7484 H       1  UNL1        0.0624
     35 H          -7.9593    0.6104   -0.5048 H       1  UNL1        0.0624
     36 H          -7.2254    1.2644   -2.7589 H       1  UNL1        0.0618
     37 H          -4.8237    1.1518   -3.3676 H       1  UNL1        0.0618
     38 H          -3.1687    0.3920   -1.7379 H       1  UNL1        0.0624
     39 H           5.6546    2.3999   -0.2881 H       1  UNL1        0.0625
     40 H           8.0554    2.3025   -0.7479 H       1  UNL1        0.0618
     41 H           9.3595    0.1727   -0.5598 H       1  UNL1        0.0640
@<TRIPOS>BOND
     1     1     2   ar
     2     2     3   ar
     3     3     4   ar
     4     4     5   ar
     5     5     6    1
     6     6     7   ar
     7     7     8   ar
     8     8     9   ar
     9     9    10   ar
    10     9    11    1
    11    11    12   ar
    12    12    13   ar
    13    13    14   ar
    14    14    15   ar
    15    15    16   ar
    16    16    17   ar
    17    17    18   ar
    18    18    19   ar
    19    19    20   ar
    20     3    21    1
    21    21    22   ar
    22    22    23   ar
    23    23    24   ar
    24    24    25   ar
    25    25    26   ar
    26    26    27   ar
    27    27    28   ar
    28    28    29   ar
    29     5     1   ar
    30    10     6   ar
    31    20    11   ar
    32    29    21   ar
    33    20    15   ar
    34    29    25   ar
    35     1    30    1
    36     8    31    1
    37    12    32    1
    38    13    33    1
    39    14    34    1
    40    16    35    1
    41    17    36    1
    42    18    37    1
    43    19    38    1
    44    22    39    1
    45    23    40    1
    46    24    41    1
