@<TRIPOS>MOLECULE
*****
 44 49 0 0 0
SMALL
GASTEIGER

@<TRIPOS>ATOM
      1 C           2.8918   -1.6129    0.3804 C.ar    1  UNL1        0.0438
      2 N           4.2217   -1.2622    0.5275 N.ar    1  UNL1       -0.2451
      3 C           4.4037   -0.0088    0.1504 C.ar    1  UNL1        0.1270
      4 S           2.9739    0.7861   -0.3891 S.2     1  UNL1       -0.0651
      5 C           2.0428   -0.6313   -0.0995 C.ar    1  UNL1        0.0481
      6 C           0.6192   -0.7249   -0.3478 C.ar    1  UNL1        0.0555
      7 S          -0.3859    0.6784   -0.4561 S.2     1  UNL1       -0.0833
      8 C          -1.8163   -0.2277   -0.7248 C.ar    1  UNL1        0.0480
      9 C          -3.0877    0.4808   -0.9047 C.ar    1  UNL1       -0.0015
     10 C          -3.3897    0.9706   -2.1869 C.ar    1  UNL1       -0.0529
     11 C          -4.5779    1.6531   -2.4230 C.ar    1  UNL1       -0.0606
     12 C          -5.4794    1.8530   -1.3809 C.ar    1  UNL1       -0.0540
     13 C          -5.2101    1.3732   -0.0898 C.ar    1  UNL1       -0.0173
     14 C          -6.1346    1.5857    0.9467 C.ar    1  UNL1       -0.0540
     15 C          -5.8887    1.1184    2.2367 C.ar    1  UNL1       -0.0612
     16 C          -4.7140    0.4306    2.5082 C.ar    1  UNL1       -0.0611
     17 C          -3.7846    0.2110    1.4889 C.ar    1  UNL1       -0.0534
     18 C          -4.0036    0.6736    0.1684 C.ar    1  UNL1       -0.0096
     19 C          -1.5484   -1.5757   -0.7370 C.ar    1  UNL1        0.1045
     20 N          -2.5034   -2.5300   -0.9354 N.ar    1  UNL1       -0.2508
     21 C          -1.9676   -3.7770   -0.8986 C.ar    1  UNL1        0.0464
     22 C          -0.6164   -4.0624   -0.6849 C.ar    1  UNL1        0.0464
     23 N           0.3580   -3.1353   -0.4822 N.ar    1  UNL1       -0.2507
     24 C          -0.1476   -1.8647   -0.5145 C.ar    1  UNL1        0.1051
     25 C           5.7045    0.6893    0.1734 C.ar    1  UNL1        0.0959
     26 C           6.8509    0.0283    0.6120 C.ar    1  UNL1       -0.0337
     27 C           8.0645    0.7120    0.6234 C.ar    1  UNL1       -0.0582
     28 C           8.1032    2.0336    0.1982 C.ar    1  UNL1       -0.0436
     29 C           6.9218    2.6197   -0.2227 C.ar    1  UNL1        0.0283
     30 N           5.7309    1.9822   -0.2449 N.ar    1  UNL1       -0.2529
     31 H           2.5940   -2.6189    0.6517 H       1  UNL1        0.0841
     32 H          -2.6950    0.8171   -3.0101 H       1  UNL1        0.0624
     33 H          -4.8028    2.0281   -3.4179 H       1  UNL1        0.0618
     34 H          -6.4036    2.3895   -1.5860 H       1  UNL1        0.0624
     35 H          -7.0617    2.1217    0.7545 H       1  UNL1        0.0624
     36 H          -6.6151    1.2915    3.0261 H       1  UNL1        0.0618
     37 H          -4.5161    0.0618    3.5111 H       1  UNL1        0.0618
     38 H          -2.8780   -0.3345    1.7401 H       1  UNL1        0.0624
     39 H          -2.6791   -4.5836   -1.0517 H       1  UNL1        0.0845
     40 H          -0.2741   -5.0937   -0.6724 H       1  UNL1        0.0845
     41 H           6.8004   -1.0057    0.9408 H       1  UNL1        0.0640
     42 H           8.9692    0.2148    0.9615 H       1  UNL1        0.0619
     43 H           9.0313    2.5943    0.1946 H       1  UNL1        0.0633
     44 H           6.8998    3.6508   -0.5645 H       1  UNL1        0.0830
@<TRIPOS>BOND
     1     1     2   ar
     2     2     3   ar
     3     3     4   ar
     4     4     5   ar
     5     5     6    1
     6     6     7   ar
     7     7     8   ar
     8     8     9    1
     9     9    10   ar
    10    10    11   ar
    11    11    12   ar
    12    12    13   ar
    13    13    14   ar
    14    14    15   ar
    15    15    16   ar
    16    16    17   ar
    17    17    18   ar
    18     8    19   ar
    19    19    20   ar
    20    20    21   ar
    21    21    22   ar
    22    22    23   ar
    23    23    24   ar
    24     3    25    1
    25    25    26   ar
    26    26    27   ar
    27    27    28   ar
    28    28    29   ar
    29    29    30   ar
    30     5     1   ar
    31    24     6   ar
    32    30    25   ar
    33    18     9   ar
    34    24    19   ar
    35    18    13   ar
    36     1    31    1
    37    10    32    1
    38    11    33    1
    39    12    34    1
    40    14    35    1
    41    15    36    1
    42    16    37    1
    43    17    38    1
    44    21    39    1
    45    22    40    1
    46    26    41    1
    47    27    42    1
    48    28    43    1
    49    29    44    1
