@<TRIPOS>MOLECULE
*****
 28 32 0 0 0
SMALL
GASTEIGER

@<TRIPOS>ATOM
      1 C           6.1607   -0.1084   -0.7154 C.ar    1  UNL1        0.1831
      2 N           5.5883    0.0549    0.4589 N.ar    1  UNL1       -0.2160
      3 C           4.2507   -0.0338    0.1729 C.ar    1  UNL1        0.1129
      4 C           3.1180    0.0548    0.9860 C.ar    1  UNL1        0.0120
      5 C           1.8794   -0.0811    0.3740 C.ar    1  UNL1        0.1580
      6 O           0.6469   -0.0323    0.9519 O.2     1  UNL1       -0.4352
      7 C          -0.2198   -0.2239   -0.0980 C.ar    1  UNL1        0.2285
      8 C          -1.6472   -0.2219    0.2192 C.ar    1  UNL1        0.0391
      9 C          -2.1123   -0.0331    1.5350 C.ar    1  UNL1       -0.0474
     10 C          -3.4791   -0.0292    1.8519 C.ar    1  UNL1       -0.0340
     11 C          -4.3579   -0.2234    0.7883 C.ar    1  UNL1        0.0858
     12 N          -5.7201   -0.2832    0.6938 N.ar    1  UNL1       -0.2571
     13 N          -6.1266   -0.4925   -0.5685 N.ar    1  UNL1       -0.0673
     14 N          -5.0406   -0.5744   -1.3276 N.ar    1  UNL1       -0.1296
     15 C          -3.9449   -0.4132   -0.5224 C.ar    1  UNL1        0.1132
     16 C          -2.5761   -0.4142   -0.8214 C.ar    1  UNL1       -0.0202
     17 N           0.3688   -0.3865   -1.2712 N.ar    1  UNL1       -0.2088
     18 C           1.7053   -0.2979   -0.9855 C.ar    1  UNL1        0.1135
     19 C           2.8374   -0.3867   -1.7995 C.ar    1  UNL1        0.0120
     20 C           4.0764   -0.2509   -1.1883 C.ar    1  UNL1        0.1573
     21 O           5.3108   -0.2996   -1.7655 O.2     1  UNL1       -0.4424
     22 H           7.2170   -0.1093   -0.9464 H       1  UNL1        0.1255
     23 H           3.2067    0.2233    2.0525 H       1  UNL1        0.0677
     24 H          -1.3998    0.1164    2.3463 H       1  UNL1        0.0626
     25 H          -3.8224    0.1175    2.8704 H       1  UNL1        0.0639
     26 H          -6.4179   -0.1933    1.4217 H       1  UNL1        0.1907
     27 H          -2.2507   -0.5627   -1.8471 H       1  UNL1        0.0648
     28 H           2.7489   -0.5552   -2.8662 H       1  UNL1        0.0677
@<TRIPOS>BOND
     1     1     2   ar
     2     2     3   ar
     3     3     4   ar
     4     4     5   ar
     5     5     6   ar
     6     6     7   ar
     7     7     8    1
     8     8     9   ar
     9     9    10   ar
    10    10    11   ar
    11    11    12   ar
    12    12    13   ar
    13    13    14   ar
    14    14    15   ar
    15    15    16   ar
    16     7    17   ar
    17    17    18   ar
    18    18    19   ar
    19    19    20   ar
    20    20    21   ar
    21    21     1   ar
    22    20     3   ar
    23    18     5   ar
    24    16     8   ar
    25    15    11   ar
    26     1    22    1
    27     4    23    1
    28     9    24    1
    29    10    25    1
    30    12    26    1
    31    16    27    1
    32    19    28    1
