@<TRIPOS>MOLECULE
*****
 22 25 0 0 0
SMALL
GASTEIGER

@<TRIPOS>ATOM
      1 C           4.8296   -0.3051    0.3490 C.ar    1  UNL1        0.1831
      2 N           4.2238    0.8602    0.2567 N.ar    1  UNL1       -0.2160
      3 C           2.8972    0.5226    0.1954 C.ar    1  UNL1        0.1129
      4 C           1.7427    1.3025    0.0898 C.ar    1  UNL1        0.0120
      5 C           0.5241    0.6387    0.0507 C.ar    1  UNL1        0.1580
      6 O          -0.7224    1.1764   -0.0485 O.2     1  UNL1       -0.4350
      7 C          -1.5621    0.0860   -0.0446 C.ar    1  UNL1        0.2330
      8 C          -3.0935    0.2109   -0.1404 C.ar    1  UNL1        0.0954
      9 C          -3.8773    1.3672   -0.2427 C.ar    1  UNL1        0.0823
     10 N          -5.1808    1.0760   -0.3049 N.ar    1  UNL1       -0.0860
     11 O          -5.2492   -0.3113   -0.2414 O.2     1  UNL1       -0.3622
     12 C          -3.9930   -0.8189   -0.1430 C.ar    1  UNL1        0.1364
     13 N          -0.9364   -1.0765    0.0486 N.ar    1  UNL1       -0.2087
     14 C           0.3898   -0.7403    0.1100 C.ar    1  UNL1        0.1135
     15 C           1.5432   -1.5216    0.2156 C.ar    1  UNL1        0.0120
     16 C           2.7625   -0.8590    0.2548 C.ar    1  UNL1        0.1573
     17 O           4.0114   -1.3970    0.3542 O.2     1  UNL1       -0.4424
     18 H           5.8908   -0.4996    0.4206 H       1  UNL1        0.1255
     19 H           1.8009    2.3834    0.0406 H       1  UNL1        0.0677
     20 H          -3.5693    2.4027   -0.2750 H       1  UNL1        0.0872
     21 H          -3.9190   -1.8947   -0.0863 H       1  UNL1        0.1065
     22 H           1.4868   -2.6027    0.2650 H       1  UNL1        0.0677
@<TRIPOS>BOND
     1     1     2   ar
     2     2     3   ar
     3     3     4   ar
     4     4     5   ar
     5     5     6   ar
     6     6     7   ar
     7     7     8    1
     8     8     9   ar
     9     9    10   ar
    10    10    11   ar
    11    11    12   ar
    12     7    13   ar
    13    13    14   ar
    14    14    15   ar
    15    15    16   ar
    16    16    17   ar
    17    17     1   ar
    18    16     3   ar
    19    14     5   ar
    20    12     8   ar
    21     1    18    1
    22     4    19    1
    23     9    20    1
    24    12    21    1
    25    15    22    1
