@<TRIPOS>MOLECULE
*****
 22 25 0 0 0
SMALL
GASTEIGER

@<TRIPOS>ATOM
      1 C          -4.9100    0.5515    0.1656 C.ar    1  UNL1        0.1831
      2 N          -4.1217    1.5594   -0.1437 N.ar    1  UNL1       -0.2160
      3 C          -2.8666    1.0142   -0.0660 C.ar    1  UNL1        0.1129
      4 C          -1.5990    1.5616   -0.2787 C.ar    1  UNL1        0.0120
      5 C          -0.5044    0.7234   -0.1148 C.ar    1  UNL1        0.1580
      6 O           0.8126    1.0260   -0.2652 O.2     1  UNL1       -0.4339
      7 C           1.4659   -0.1543    0.0130 C.ar    1  UNL1        0.2476
      8 C           3.0323   -0.2953   -0.0331 C.ar    1  UNL1        0.1327
      9 C           3.6719   -1.4857    0.2485 C.ar    1  UNL1        0.0077
     10 S           5.3684   -1.2809    0.1038 S.2     1  UNL1       -0.0831
     11 C           5.1128    0.3627   -0.3184 C.ar    1  UNL1        0.0656
     12 N           3.8622    0.7660   -0.3587 N.ar    1  UNL1       -0.2427
     13 N           0.6560   -1.1585    0.3224 N.ar    1  UNL1       -0.2075
     14 C          -0.5973   -0.6126    0.2444 C.ar    1  UNL1        0.1135
     15 C          -1.8643   -1.1617    0.4576 C.ar    1  UNL1        0.0120
     16 C          -2.9596   -0.3245    0.2939 C.ar    1  UNL1        0.1573
     17 O          -4.2808   -0.6266    0.4444 O.2     1  UNL1       -0.4424
     18 H          -5.9896    0.5452    0.2248 H       1  UNL1        0.1255
     19 H          -1.4769    2.6008   -0.5608 H       1  UNL1        0.0677
     20 H           3.2328   -2.4345    0.5235 H       1  UNL1        0.0717
     21 H           5.9408    1.0244   -0.5380 H       1  UNL1        0.0907
     22 H          -1.9856   -2.2008    0.7396 H       1  UNL1        0.0677
@<TRIPOS>BOND
     1     1     2   ar
     2     2     3   ar
     3     3     4   ar
     4     4     5   ar
     5     5     6   ar
     6     6     7   ar
     7     7     8    1
     8     8     9   ar
     9     9    10   ar
    10    10    11   ar
    11    11    12   ar
    12     7    13   ar
    13    13    14   ar
    14    14    15   ar
    15    15    16   ar
    16    16    17   ar
    17    17     1   ar
    18    16     3   ar
    19    14     5   ar
    20    12     8   ar
    21     1    18    1
    22     4    19    1
    23     9    20    1
    24    11    21    1
    25    15    22    1
