@<TRIPOS>MOLECULE
*****
 28 32 0 0 0
SMALL
GASTEIGER

@<TRIPOS>ATOM
      1 C          -6.5020    0.1255   -0.2837 C.ar    1  UNL1        0.0659
      2 N          -5.7862   -0.6030    0.5425 N.ar    1  UNL1       -0.2474
      3 C          -4.4407   -0.3672    0.3172 C.ar    1  UNL1        0.0793
      4 C          -3.3719   -0.9596    1.0020 C.ar    1  UNL1       -0.0194
      5 C          -2.0566   -0.6319    0.6741 C.ar    1  UNL1        0.0416
      6 S          -0.5826   -1.2006    1.3435 S.2     1  UNL1       -0.0671
      7 C           0.3161   -0.2030    0.2625 C.ar    1  UNL1        0.1095
      8 C           1.7964   -0.1674    0.2626 C.ar    1  UNL1        0.0093
      9 C           2.5909   -0.9376    1.1370 C.ar    1  UNL1       -0.0499
     10 C           3.9950   -0.8901    1.1220 C.ar    1  UNL1       -0.0341
     11 C           4.5741   -0.0341    0.1891 C.ar    1  UNL1        0.0858
     12 N           5.8665    0.2802   -0.1245 N.ar    1  UNL1       -0.2571
     13 N           5.9366    1.1796   -1.1189 N.ar    1  UNL1       -0.0673
     14 N           4.6925    1.4732   -1.4773 N.ar    1  UNL1       -0.1296
     15 C           3.8398    0.7440   -0.6924 C.ar    1  UNL1        0.1131
     16 C           2.4401    0.6829   -0.6621 C.ar    1  UNL1       -0.0227
     17 N          -0.4284    0.5173   -0.5553 N.ar    1  UNL1       -0.2390
     18 C          -1.7725    0.2846   -0.3334 C.ar    1  UNL1        0.0801
     19 C          -2.8394    0.8783   -1.0196 C.ar    1  UNL1       -0.0194
     20 C          -4.1555    0.5518   -0.6932 C.ar    1  UNL1        0.0410
     21 S          -5.6320    1.1251   -1.3677 S.2     1  UNL1       -0.0753
     22 H          -7.5841    0.1001   -0.2845 H       1  UNL1        0.0907
     23 H          -3.5847   -1.6763    1.7902 H       1  UNL1        0.0651
     24 H           2.1309   -1.6049    1.8640 H       1  UNL1        0.0625
     25 H           4.5869   -1.4914    1.8039 H       1  UNL1        0.0639
     26 H           6.7272   -0.0652    0.2812 H       1  UNL1        0.1907
     27 H           1.8694    1.2948   -1.3552 H       1  UNL1        0.0647
     28 H          -2.6258    1.5949   -1.8077 H       1  UNL1        0.0651
@<TRIPOS>BOND
     1     1     2   ar
     2     2     3   ar
     3     3     4   ar
     4     4     5   ar
     5     5     6   ar
     6     6     7   ar
     7     7     8    1
     8     8     9   ar
     9     9    10   ar
    10    10    11   ar
    11    11    12   ar
    12    12    13   ar
    13    13    14   ar
    14    14    15   ar
    15    15    16   ar
    16     7    17   ar
    17    17    18   ar
    18    18    19   ar
    19    19    20   ar
    20    20    21   ar
    21    21     1   ar
    22    20     3   ar
    23    18     5   ar
    24    16     8   ar
    25    15    11   ar
    26     1    22    1
    27     4    23    1
    28     9    24    1
    29    10    25    1
    30    12    26    1
    31    16    27    1
    32    19    28    1
