@<TRIPOS>MOLECULE
*****
 22 25 0 0 0
SMALL
GASTEIGER

@<TRIPOS>ATOM
      1 C          -5.0916    0.4211    0.3056 C.ar    1  UNL1        0.0659
      2 N          -4.3727   -0.6328    0.6188 N.ar    1  UNL1       -0.2474
      3 C          -3.0309   -0.3471    0.4351 C.ar    1  UNL1        0.0793
      4 C          -1.9611   -1.2217    0.6646 C.ar    1  UNL1       -0.0194
      5 C          -0.6494   -0.8056    0.4384 C.ar    1  UNL1        0.0416
      6 S           0.8269   -1.6641    0.6362 S.2     1  UNL1       -0.0670
      7 C           1.6986   -0.2859    0.1102 C.ar    1  UNL1        0.1140
      8 C           3.2433   -0.2441   -0.0034 C.ar    1  UNL1        0.0657
      9 C           4.0432    0.8310   -0.4214 C.ar    1  UNL1        0.0797
     10 N           5.3433    0.5210   -0.3993 N.ar    1  UNL1       -0.0861
     11 O           5.3977   -0.7934    0.0454 O.2     1  UNL1       -0.3623
     12 C           4.1365   -1.2421    0.2795 C.ar    1  UNL1        0.1339
     13 N           0.9722    0.7648   -0.2014 N.ar    1  UNL1       -0.2388
     14 C          -0.3696    0.4813   -0.0184 C.ar    1  UNL1        0.0801
     15 C          -1.4386    1.3566   -0.2482 C.ar    1  UNL1       -0.0194
     16 C          -2.7508    0.9411   -0.0221 C.ar    1  UNL1        0.0410
     17 S          -4.2280    1.8026   -0.2209 S.2     1  UNL1       -0.0753
     18 H          -6.1718    0.4230    0.3745 H       1  UNL1        0.0907
     19 H          -2.1709   -2.2266    1.0207 H       1  UNL1        0.0651
     20 H           3.7406    1.8192   -0.7389 H       1  UNL1        0.0871
     21 H           4.0639   -2.2602    0.6313 H       1  UNL1        0.1064
     22 H          -1.2310    2.3619   -0.6043 H       1  UNL1        0.0651
@<TRIPOS>BOND
     1     1     2   ar
     2     2     3   ar
     3     3     4   ar
     4     4     5   ar
     5     5     6   ar
     6     6     7   ar
     7     7     8    1
     8     8     9   ar
     9     9    10   ar
    10    10    11   ar
    11    11    12   ar
    12     7    13   ar
    13    13    14   ar
    14    14    15   ar
    15    15    16   ar
    16    16    17   ar
    17    17     1   ar
    18    16     3   ar
    19    14     5   ar
    20    12     8   ar
    21     1    18    1
    22     4    19    1
    23     9    20    1
    24    12    21    1
    25    15    22    1
