@<TRIPOS>MOLECULE
*****
 41 46 0 0 0
SMALL
GASTEIGER

@<TRIPOS>ATOM
      1 SI          4.9355    2.7541    0.4199 Si      1  UNL1        0.0000
      2 C           5.6996    1.0680    0.1627 C.2     1  UNL1        0.0000
      3 C           4.7484    0.1229    0.0408 C.ar    1  UNL1        0.0000
      4 C           5.0182   -1.2825   -0.1670 C.ar    1  UNL1        0.0000
      5 C           4.0008   -2.1541   -0.2763 C.ar    1  UNL1        0.0000
      6 C           2.5865   -1.7193   -0.1902 C.ar    1  UNL1        0.0000
      7 C           1.5708   -2.6741   -0.3103 C.ar    1  UNL1        0.0000
      8 C           0.2288   -2.2912   -0.2346 C.ar    1  UNL1        0.0000
      9 C          -0.1300   -0.9496   -0.0419 C.ar    1  UNL1        0.0000
     10 C           0.8922    0.0062    0.0847 C.ar    1  UNL1        0.0000
     11 C           2.2447   -0.3584    0.0111 C.ar    1  UNL1        0.0000
     12 C           3.3556    0.6150    0.1344 C.ar    1  UNL1        0.0000
     13 C           3.2486    1.9463    0.3290 C.2     1  UNL1        0.0000
     14 C          -1.5344   -0.5612    0.0431 C.ar    1  UNL1        0.0000
     15 C          -2.4011   -0.9911    1.0868 C.ar    1  UNL1        0.0000
     16 C          -3.7591   -0.5778    1.1281 C.ar    1  UNL1        0.0000
     17 N          -4.7787   -0.8446    2.0183 N.ar    1  UNL1        0.0000
     18 C          -5.9384   -0.2050    1.6243 C.ar    1  UNL1        0.0000
     19 C          -5.6875    0.4961    0.4605 C.ar    1  UNL1        0.0000
     20 C          -4.3465    0.2481    0.1863 C.ar    1  UNL1        0.0000
     21 C          -3.5226    0.6952   -0.8766 C.ar    1  UNL1        0.0000
     22 C          -3.8170    1.4930   -1.9396 C.ar    1  UNL1        0.0000
     23 N          -2.6364    1.5726   -2.6497 N.ar    1  UNL1        0.0000
     24 C          -1.6448    0.8332   -2.0236 C.ar    1  UNL1        0.0000
     25 C          -2.1826    0.2704   -0.8846 C.ar    1  UNL1        0.0000
     26 H           5.2270    3.3103    1.7633 H       1  UNL1        0.0000
     27 H           5.1864    3.6699   -0.7194 H       1  UNL1        0.0000
     28 H           6.7684    0.9316    0.1261 H       1  UNL1        0.0000
     29 H           6.0473   -1.6185   -0.2325 H       1  UNL1        0.0000
     30 H           4.2002   -3.2090   -0.4323 H       1  UNL1        0.0000
     31 H           1.8108   -3.7228   -0.4664 H       1  UNL1        0.0000
     32 H          -0.5444   -3.0501   -0.3390 H       1  UNL1        0.0000
     33 H           0.6144    1.0448    0.2457 H       1  UNL1        0.0000
     34 H           2.3531    2.5365    0.4296 H       1  UNL1        0.0000
     35 H          -2.0118   -1.6369    1.8709 H       1  UNL1        0.0000
     36 H          -4.6861   -1.4253    2.8400 H       1  UNL1        0.0000
     37 H          -6.8410   -0.3076    2.2114 H       1  UNL1        0.0000
     38 H          -6.3933    1.0975   -0.0948 H       1  UNL1        0.0000
     39 H          -4.7144    1.9973   -2.2681 H       1  UNL1        0.0000
     40 H          -2.5115    2.0894   -3.5102 H       1  UNL1        0.0000
     41 H          -0.6558    0.7806   -2.4588 H       1  UNL1        0.0000
@<TRIPOS>BOND
     1     1     2    1
     2     2     3    2
     3     3     4   ar
     4     4     5   ar
     5     5     6   ar
     6     6     7   ar
     7     7     8   ar
     8     8     9   ar
     9     9    10   ar
    10    10    11   ar
    11    11    12   ar
    12    12    13    2
    13     9    14    1
    14    14    15   ar
    15    15    16   ar
    16    16    17   ar
    17    17    18   ar
    18    18    19   ar
    19    19    20   ar
    20    20    21   ar
    21    21    22   ar
    22    22    23   ar
    23    23    24   ar
    24    24    25   ar
    25    13     1    1
    26    25    14   ar
    27    12     3   ar
    28    20    16   ar
    29    25    21   ar
    30    11     6   ar
    31     1    26    1
    32     1    27    1
    33     2    28    1
    34     4    29    1
    35     5    30    1
    36     7    31    1
    37     8    32    1
    38    10    33    1
    39    13    34    1
    40    15    35    1
    41    17    36    1
    42    18    37    1
    43    19    38    1
    44    22    39    1
    45    23    40    1
    46    24    41    1
