@<TRIPOS>MOLECULE
*****
 28 32 0 0 0
SMALL
GASTEIGER

@<TRIPOS>ATOM
      1 C           6.1423   -0.5129   -0.3901 C.ar    1  UNL1        0.0973
      2 N           5.3209   -1.4620   -0.7916 N.ar    1  UNL1       -0.2152
      3 C           4.0696   -0.9755   -0.5242 C.ar    1  UNL1        0.1992
      4 N           2.8783   -1.5794   -0.7551 N.ar    1  UNL1       -0.2020
      5 C           1.7997   -0.8485   -0.3829 C.ar    1  UNL1        0.1998
      6 N           0.4815   -1.1908   -0.4902 N.ar    1  UNL1       -0.2068
      7 C          -0.2016   -0.1648    0.0017 C.ar    1  UNL1        0.1422
      8 C          -1.6672   -0.0864    0.0914 C.ar    1  UNL1        0.0196
      9 C          -2.4326   -1.1738   -0.3752 C.ar    1  UNL1       -0.0490
     10 C          -3.8343   -1.1871   -0.3297 C.ar    1  UNL1       -0.0341
     11 C          -4.4387   -0.0545    0.2078 C.ar    1  UNL1        0.0858
     12 N          -5.7394    0.3064    0.4199 N.ar    1  UNL1       -0.2571
     13 N          -5.8360    1.5249    0.9778 N.ar    1  UNL1       -0.0673
     14 N          -4.6023    1.9864    1.1423 N.ar    1  UNL1       -0.1296
     15 C          -3.7291    1.0391    0.6793 C.ar    1  UNL1        0.1131
     16 C          -2.3262    1.0357    0.6261 C.ar    1  UNL1       -0.0218
     17 N           0.6627    0.8286    0.4219 N.ar    1  UNL1       -0.3214
     18 C           1.9352    0.4111    0.1851 C.ar    1  UNL1        0.1795
     19 N           3.0966    1.0514    0.4336 N.ar    1  UNL1       -0.2052
     20 C           4.1433    0.2914    0.0494 C.ar    1  UNL1        0.1791
     21 N           5.4745    0.5673    0.1259 N.ar    1  UNL1       -0.3279
     22 H           7.2227   -0.5497   -0.4466 H       1  UNL1        0.1028
     23 H          -1.9221   -2.0452   -0.7904 H       1  UNL1        0.0625
     24 H          -4.4020   -2.0360   -0.6950 H       1  UNL1        0.0639
     25 H          -6.5882   -0.2072    0.2175 H       1  UNL1        0.1907
     26 H          -1.8019    1.9044    1.0020 H       1  UNL1        0.0647
     27 H           0.4138    1.7134    0.8336 H       1  UNL1        0.1689
     28 H           5.8804    1.4135    0.4959 H       1  UNL1        0.1683
@<TRIPOS>BOND
     1     1     2   ar
     2     2     3   ar
     3     3     4   ar
     4     4     5   ar
     5     5     6   ar
     6     6     7   ar
     7     7     8    1
     8     8     9   ar
     9     9    10   ar
    10    10    11   ar
    11    11    12   ar
    12    12    13   ar
    13    13    14   ar
    14    14    15   ar
    15    15    16   ar
    16     7    17   ar
    17    17    18   ar
    18    18    19   ar
    19    19    20   ar
    20    20    21   ar
    21    21     1   ar
    22    20     3   ar
    23    18     5   ar
    24    16     8   ar
    25    15    11   ar
    26     1    22    1
    27     9    23    1
    28    10    24    1
    29    12    25    1
    30    16    26    1
    31    17    27    1
    32    21    28    1
