@<TRIPOS>MOLECULE
*****
 22 25 0 0 0
SMALL
GASTEIGER

@<TRIPOS>ATOM
      1 C           4.7914   -0.2214    0.4126 C.ar    1  UNL1        0.0973
      2 N           4.0601    0.5634    1.1778 N.ar    1  UNL1       -0.2152
      3 C           2.7726    0.3501    0.7661 C.ar    1  UNL1        0.1992
      4 N           1.6428    0.9253    1.2455 N.ar    1  UNL1       -0.2020
      5 C           0.5039    0.5155    0.6375 C.ar    1  UNL1        0.1998
      6 N          -0.7757    0.9163    0.9041 N.ar    1  UNL1       -0.2067
      7 C          -1.5298    0.2412    0.0562 C.ar    1  UNL1        0.1468
      8 C          -3.0646    0.3716   -0.0102 C.ar    1  UNL1        0.0759
      9 C          -3.9968   -0.2667   -0.8419 C.ar    1  UNL1        0.0807
     10 N          -5.2470    0.1261   -0.5801 N.ar    1  UNL1       -0.0861
     11 O          -5.1314    1.0486    0.4529 O.2     1  UNL1       -0.3622
     12 C          -3.8224    1.1877    0.7858 C.ar    1  UNL1        0.1348
     13 N          -0.7778   -0.5816   -0.7480 N.ar    1  UNL1       -0.3213
     14 C           0.5251   -0.4203   -0.3915 C.ar    1  UNL1        0.1795
     15 N           1.6219   -1.0182   -0.9004 N.ar    1  UNL1       -0.2052
     16 C           2.7315   -0.5823   -0.2677 C.ar    1  UNL1        0.1791
     17 N           4.0302   -0.9340   -0.4775 N.ar    1  UNL1       -0.3279
     18 H           5.8690   -0.3165    0.4555 H       1  UNL1        0.1028
     19 H          -3.8417   -0.9951   -1.6239 H       1  UNL1        0.0871
     20 H          -3.6055    1.8837    1.5829 H       1  UNL1        0.1065
     21 H          -1.1142   -1.1965   -1.4721 H       1  UNL1        0.1689
     22 H           4.3584   -1.5969   -1.1635 H       1  UNL1        0.1683
@<TRIPOS>BOND
     1     1     2   ar
     2     2     3   ar
     3     3     4   ar
     4     4     5   ar
     5     5     6   ar
     6     6     7   ar
     7     7     8    1
     8     8     9   ar
     9     9    10   ar
    10    10    11   ar
    11    11    12   ar
    12     7    13   ar
    13    13    14   ar
    14    14    15   ar
    15    15    16   ar
    16    16    17   ar
    17    17     1   ar
    18    16     3   ar
    19    14     5   ar
    20    12     8   ar
    21     1    18    1
    22     9    19    1
    23    12    20    1
    24    13    21    1
    25    17    22    1
