@<TRIPOS>MOLECULE
*****
 22 25 0 0 0
SMALL
GASTEIGER

@<TRIPOS>ATOM
      1 C           4.9028    0.2244   -0.0299 C.ar    1  UNL1        0.0973
      2 N           4.2249   -0.5725   -0.8309 N.ar    1  UNL1       -0.2152
      3 C           2.9125   -0.3604   -0.5048 C.ar    1  UNL1        0.1992
      4 N           1.8178   -0.9458   -1.0481 N.ar    1  UNL1       -0.2020
      5 C           0.6397   -0.5345   -0.5189 C.ar    1  UNL1        0.1998
      6 N          -0.6181   -0.9421   -0.8597 N.ar    1  UNL1       -0.2052
      7 C          -1.4304   -0.2606   -0.0694 C.ar    1  UNL1        0.1611
      8 C          -2.9957   -0.3881   -0.0873 C.ar    1  UNL1        0.1132
      9 C          -3.8321    0.3300    0.7441 C.ar    1  UNL1        0.0061
     10 S          -5.4691   -0.0840    0.4252 S.2     1  UNL1       -0.0832
     11 C          -4.9339   -1.1760   -0.7833 C.ar    1  UNL1        0.0655
     12 N          -3.6348   -1.2492   -0.9598 N.ar    1  UNL1       -0.2444
     13 N          -0.7290    0.5734    0.7696 N.ar    1  UNL1       -0.3202
     14 C           0.5935    0.4130    0.4979 C.ar    1  UNL1        0.1796
     15 N           1.6533    1.0220    1.0691 N.ar    1  UNL1       -0.2052
     16 C           2.8022    0.5835    0.5132 C.ar    1  UNL1        0.1791
     17 N           4.0835    0.9435    0.8011 N.ar    1  UNL1       -0.3279
     18 H           5.9805    0.3238   -0.0052 H       1  UNL1        0.1028
     19 H          -3.5912    1.0574    1.5038 H       1  UNL1        0.0716
     20 H          -5.6292   -1.7684   -1.3642 H       1  UNL1        0.0907
     21 H          -1.1116    1.1949    1.4633 H       1  UNL1        0.1689
     22 H           4.3643    1.6157    1.4988 H       1  UNL1        0.1683
@<TRIPOS>BOND
     1     1     2   ar
     2     2     3   ar
     3     3     4   ar
     4     4     5   ar
     5     5     6   ar
     6     6     7   ar
     7     7     8    1
     8     8     9   ar
     9     9    10   ar
    10    10    11   ar
    11    11    12   ar
    12     7    13   ar
    13    13    14   ar
    14    14    15   ar
    15    15    16   ar
    16    16    17   ar
    17    17     1   ar
    18    16     3   ar
    19    14     5   ar
    20    12     8   ar
    21     1    18    1
    22     9    19    1
    23    11    20    1
    24    13    21    1
    25    17    22    1
