@<TRIPOS>MOLECULE
*****
 21 24 0 0 0
SMALL
GASTEIGER

@<TRIPOS>ATOM
      1 C           4.7136    0.2967    0.2777 C.ar    1  UNL1        0.0973
      2 N           3.9453    1.3669    0.3100 N.ar    1  UNL1       -0.2152
      3 C           2.6682    0.8816    0.2272 C.ar    1  UNL1        0.1992
      4 N           1.5114    1.5877    0.2213 N.ar    1  UNL1       -0.2020
      5 C           0.3915    0.8303    0.1286 C.ar    1  UNL1        0.1999
      6 N          -0.9053    1.2606    0.1002 N.ar    1  UNL1       -0.2035
      7 C          -1.6266    0.1563    0.0033 C.ar    1  UNL1        0.1829
      8 C          -3.1858    0.0832   -0.0665 C.ar    1  UNL1        0.2373
      9 N          -4.0019    1.1850   -0.0343 N.ar    1  UNL1       -0.1916
     10 C          -5.1902    0.6454   -0.1167 C.ar    1  UNL1        0.2148
     11 O          -5.1768   -0.7097   -0.1979 O.2     1  UNL1       -0.3410
     12 N          -3.8316   -1.0906   -0.1644 N.ar    1  UNL1       -0.0532
     13 N          -0.8346   -0.9671   -0.0313 N.ar    1  UNL1       -0.3188
     14 C           0.4584   -0.5576    0.0477 C.ar    1  UNL1        0.1796
     15 N           1.5839   -1.3011    0.0500 N.ar    1  UNL1       -0.2052
     16 C           2.6716   -0.5084    0.1435 C.ar    1  UNL1        0.1791
     17 N           3.9864   -0.8609    0.1773 N.ar    1  UNL1       -0.3279
     18 H           5.7951    0.2964    0.3230 H       1  UNL1        0.1028
     19 H          -6.1563    1.1271   -0.1281 H       1  UNL1        0.1283
     20 H          -1.1615   -1.9190   -0.1024 H       1  UNL1        0.1690
     21 H           4.3451   -1.8029    0.1356 H       1  UNL1        0.1683
@<TRIPOS>BOND
     1     1     2   ar
     2     2     3   ar
     3     3     4   ar
     4     4     5   ar
     5     5     6   ar
     6     6     7   ar
     7     7     8    1
     8     8     9   ar
     9     9    10   ar
    10    10    11   ar
    11    11    12   ar
    12     7    13   ar
    13    13    14   ar
    14    14    15   ar
    15    15    16   ar
    16    16    17   ar
    17    17     1   ar
    18    16     3   ar
    19    14     5   ar
    20    12     8   ar
    21     1    18    1
    22    10    19    1
    23    13    20    1
    24    17    21    1
