@<TRIPOS>MOLECULE
*****
 36 41 0 0 0
SMALL
GASTEIGER

@<TRIPOS>ATOM
      1 C           7.3202    1.0442   -1.3301 C.ar    1  UNL1        0.0653
      2 N           7.5776   -0.1801   -0.9337 N.ar    1  UNL1       -0.2550
      3 C           6.3909   -0.7881   -0.5638 C.ar    1  UNL1        0.0439
      4 C           5.2375   -0.0260   -0.6798 C.ar    1  UNL1        0.0570
      5 S           5.6787    1.5263   -1.2834 S.2     1  UNL1       -0.0739
      6 C           3.8535   -0.4058   -0.3642 C.ar    1  UNL1        0.0810
      7 C           2.7609    0.4486   -0.5206 C.ar    1  UNL1       -0.0112
      8 C           1.5137   -0.0769   -0.1718 C.ar    1  UNL1        0.0515
      9 N           0.2679    0.5013   -0.2110 N.ar    1  UNL1       -0.3531
     10 C          -0.6686   -0.4069    0.2315 C.ar    1  UNL1        0.0631
     11 C          -0.0103   -1.5579    0.5493 C.ar    1  UNL1        0.0472
     12 S          -1.0710   -2.7875    1.1211 S.2     1  UNL1       -0.0860
     13 C          -2.4262   -1.7279    0.9270 C.ar    1  UNL1        0.0225
     14 C          -3.7578   -2.0752    1.2243 C.ar    1  UNL1       -0.0468
     15 C          -4.7707   -1.1386    1.0285 C.ar    1  UNL1       -0.0529
     16 C          -4.4881    0.1359    0.5434 C.ar    1  UNL1       -0.0172
     17 C          -5.5241    1.0640    0.3536 C.ar    1  UNL1       -0.0540
     18 C          -5.2594    2.3442   -0.1311 C.ar    1  UNL1       -0.0612
     19 C          -3.9545    2.7140   -0.4329 C.ar    1  UNL1       -0.0611
     20 C          -2.9093    1.8050   -0.2510 C.ar    1  UNL1       -0.0534
     21 C          -3.1504    0.5011    0.2390 C.ar    1  UNL1       -0.0077
     22 C          -2.0924   -0.4569    0.4364 C.ar    1  UNL1        0.0208
     23 C           1.3833   -1.3781    0.3027 C.ar    1  UNL1        0.0321
     24 C           2.5215   -2.1730    0.4322 C.ar    1  UNL1        0.0385
     25 N           3.7400   -1.6782    0.0980 N.ar    1  UNL1       -0.2537
     26 H           8.0986    1.7155   -1.6684 H       1  UNL1        0.0907
     27 H           6.4145   -1.8119   -0.2072 H       1  UNL1        0.0842
     28 H           2.8557    1.4615   -0.8890 H       1  UNL1        0.0660
     29 H           0.0496    1.4400   -0.5121 H       1  UNL1        0.1659
     30 H          -3.9984   -3.0651    1.6039 H       1  UNL1        0.0629
     31 H          -5.7938   -1.4258    1.2641 H       1  UNL1        0.0624
     32 H          -6.5535    0.7960    0.5833 H       1  UNL1        0.0624
     33 H          -6.0734    3.0506   -0.2723 H       1  UNL1        0.0618
     34 H          -3.7476    3.7122   -0.8108 H       1  UNL1        0.0618
     35 H          -1.9105    2.1385   -0.4996 H       1  UNL1        0.0624
     36 H           2.4956   -3.1944    0.7946 H       1  UNL1        0.0837
@<TRIPOS>BOND
     1     1     2   ar
     2     2     3   ar
     3     3     4   ar
     4     4     5   ar
     5     4     6    1
     6     6     7   ar
     7     7     8   ar
     8     8     9   ar
     9     9    10   ar
    10    10    11   ar
    11    11    12   ar
    12    12    13   ar
    13    13    14   ar
    14    14    15   ar
    15    15    16   ar
    16    16    17   ar
    17    17    18   ar
    18    18    19   ar
    19    19    20   ar
    20    20    21   ar
    21    21    22   ar
    22    11    23   ar
    23    23    24   ar
    24    24    25   ar
    25     5     1   ar
    26    25     6   ar
    27    23     8   ar
    28    22    10   ar
    29    22    13   ar
    30    21    16   ar
    31     1    26    1
    32     3    27    1
    33     7    28    1
    34     9    29    1
    35    14    30    1
    36    15    31    1
    37    17    32    1
    38    18    33    1
    39    19    34    1
    40    20    35    1
    41    24    36    1
