@<TRIPOS>MOLECULE
*****
 41 47 0 0 0
SMALL
GASTEIGER

@<TRIPOS>ATOM
      1 C           6.9599    0.5669   -0.3746 C.ar    1  UNL1        0.0652
      2 N           6.8888   -0.3813    0.5325 N.ar    1  UNL1       -0.2551
      3 C           5.5628   -0.7206    0.7257 C.ar    1  UNL1        0.0425
      4 C           4.6399   -0.0345   -0.0433 C.ar    1  UNL1        0.0395
      5 S           5.4704    1.0969   -1.0359 S.2     1  UNL1       -0.0754
      6 C           3.1964   -0.1509   -0.0996 C.ar    1  UNL1        0.0015
      7 C           2.2929    0.9232    0.0620 C.ar    1  UNL1       -0.0444
      8 C           0.8470    0.7757    0.0213 C.ar    1  UNL1       -0.0055
      9 C          -0.0800    1.8300    0.1833 C.ar    1  UNL1        0.0079
     10 C           0.2208    3.1589    0.4025 C.ar    1  UNL1        0.0100
     11 N          -0.9690    3.8589    0.5039 N.ar    1  UNL1       -0.3659
     12 C          -2.0401    3.0037    0.3535 C.ar    1  UNL1        0.0101
     13 C          -1.4864    1.7736    0.1591 C.ar    1  UNL1        0.0097
     14 C          -2.1054    0.5068   -0.0537 C.ar    1  UNL1        0.0171
     15 C          -3.4631    0.1555   -0.1251 C.ar    1  UNL1        0.0080
     16 C          -4.7077    0.8098   -0.0320 C.ar    1  UNL1       -0.0520
     17 C          -5.8898    0.0706   -0.1645 C.ar    1  UNL1       -0.0611
     18 C          -5.8479   -1.3026   -0.3870 C.ar    1  UNL1       -0.0598
     19 C          -4.6284   -1.9772   -0.4837 C.ar    1  UNL1       -0.0378
     20 C          -3.4544   -1.2245   -0.3492 C.ar    1  UNL1        0.0475
     21 N          -2.1352   -1.6368   -0.4021 N.ar    1  UNL1       -0.3536
     22 C          -1.2623   -0.5855   -0.2225 C.ar    1  UNL1        0.0566
     23 C           0.1555   -0.4854   -0.1909 C.ar    1  UNL1        0.0174
     24 C           1.0896   -1.5204   -0.3513 C.ar    1  UNL1        0.0301
     25 C           0.8770   -2.8566   -0.5838 C.ar    1  UNL1        0.1001
     26 O           2.0693   -3.5148   -0.6943 O.2     1  UNL1       -0.4698
     27 C           3.0636   -2.5961   -0.5328 C.ar    1  UNL1        0.1000
     28 C           2.5195   -1.3571   -0.3056 C.ar    1  UNL1        0.0288
     29 H           7.9026    0.9945   -0.6901 H       1  UNL1        0.0907
     30 H           5.3204   -1.4859    1.4539 H       1  UNL1        0.0841
     31 H           2.7021    1.9173    0.2383 H       1  UNL1        0.0630
     32 H           1.1588    3.6876    0.4980 H       1  UNL1        0.0813
     33 H          -1.0412    4.8551    0.6652 H       1  UNL1        0.1648
     34 H          -3.0537    3.3713    0.4026 H       1  UNL1        0.0813
     35 H          -4.7643    1.8785    0.1410 H       1  UNL1        0.0624
     36 H          -6.8490    0.5773   -0.0923 H       1  UNL1        0.0618
     37 H          -6.7770   -1.8591   -0.4871 H       1  UNL1        0.0618
     38 H          -4.6001   -3.0481   -0.6573 H       1  UNL1        0.0638
     39 H          -1.8663   -2.5944   -0.5538 H       1  UNL1        0.1659
     40 H           0.0154   -3.4931   -0.7032 H       1  UNL1        0.1036
     41 H           4.0684   -2.9872   -0.6133 H       1  UNL1        0.1036
@<TRIPOS>BOND
     1     1     2   ar
     2     2     3   ar
     3     3     4   ar
     4     4     5   ar
     5     4     6    1
     6     6     7   ar
     7     7     8   ar
     8     8     9   ar
     9     9    10   ar
    10    10    11   ar
    11    11    12   ar
    12    12    13   ar
    13    13    14   ar
    14    14    15   ar
    15    15    16   ar
    16    16    17   ar
    17    17    18   ar
    18    18    19   ar
    19    19    20   ar
    20    20    21   ar
    21    21    22   ar
    22    22    23   ar
    23    23    24   ar
    24    24    25   ar
    25    25    26   ar
    26    26    27   ar
    27    27    28   ar
    28     5     1   ar
    29    28     6   ar
    30    23     8   ar
    31    28    24   ar
    32    13     9   ar
    33    22    14   ar
    34    20    15   ar
    35     1    29    1
    36     3    30    1
    37     7    31    1
    38    10    32    1
    39    11    33    1
    40    12    34    1
    41    16    35    1
    42    17    36    1
    43    18    37    1
    44    19    38    1
    45    21    39    1
    46    25    40    1
    47    27    41    1
