@<TRIPOS>MOLECULE
*****
 40 45 0 0 0
SMALL
GASTEIGER

@<TRIPOS>ATOM
      1 C           5.7292   -2.1942    1.2415 C.ar    1  UNL1        0.0652
      2 N           5.7824   -2.2907   -0.0686 N.ar    1  UNL1       -0.2551
      3 C           4.6351   -1.7371   -0.6062 C.ar    1  UNL1        0.0425
      4 C           3.7210   -1.2311    0.2997 C.ar    1  UNL1        0.0394
      5 S           4.3245   -1.4598    1.8915 S.2     1  UNL1       -0.0754
      6 C           2.4409   -0.5905    0.0806 C.ar    1  UNL1       -0.0001
      7 C           1.2047   -1.0597    0.5806 C.ar    1  UNL1       -0.0445
      8 C          -0.1247   -0.4792    0.3666 C.ar    1  UNL1       -0.0083
      9 C          -1.3094   -1.1272    0.8557 C.ar    1  UNL1       -0.0095
     10 C          -1.2716   -2.3905    1.5175 C.ar    1  UNL1       -0.0534
     11 C          -2.4056   -3.0571    1.9792 C.ar    1  UNL1       -0.0611
     12 C          -3.6408   -2.4832    1.7939 C.ar    1  UNL1       -0.0611
     13 C          -3.7255   -1.2492    1.1521 C.ar    1  UNL1       -0.0534
     14 C          -2.5930   -0.5343    0.6683 C.ar    1  UNL1       -0.0096
     15 C          -2.7198    0.7477    0.0353 C.ar    1  UNL1       -0.0096
     16 C          -3.9762    1.4028   -0.1312 C.ar    1  UNL1       -0.0534
     17 C          -4.1107    2.6783   -0.6751 C.ar    1  UNL1       -0.0611
     18 C          -2.9799    3.3642   -1.0534 C.ar    1  UNL1       -0.0611
     19 C          -1.7380    2.7450   -0.9224 C.ar    1  UNL1       -0.0534
     20 C          -1.5654    1.4201   -0.4369 C.ar    1  UNL1       -0.0090
     21 C          -0.2806    0.7605   -0.3572 C.ar    1  UNL1       -0.0004
     22 C           0.9787    1.1691   -0.9342 C.ar    1  UNL1        0.0083
     23 C           1.2217    2.1507   -1.8714 C.ar    1  UNL1        0.0100
     24 N           2.5759    2.1966   -2.1165 N.ar    1  UNL1       -0.3659
     25 C           3.2108    1.2054   -1.4168 C.ar    1  UNL1        0.0100
     26 C           2.2430    0.5268   -0.7146 C.ar    1  UNL1        0.0083
     27 H           6.5229   -2.5595    1.8808 H       1  UNL1        0.0907
     28 H           4.5128   -1.7262   -1.6822 H       1  UNL1        0.0841
     29 H           1.2882   -1.9638    1.1799 H       1  UNL1        0.0630
     30 H          -0.3375   -2.9171    1.6848 H       1  UNL1        0.0624
     31 H          -2.3116   -4.0212    2.4734 H       1  UNL1        0.0618
     32 H          -4.5397   -2.9831    2.1419 H       1  UNL1        0.0618
     33 H          -4.7303   -0.8537    1.0404 H       1  UNL1        0.0624
     34 H          -4.9026    0.9313    0.1763 H       1  UNL1        0.0624
     35 H          -5.0918    3.1341   -0.7702 H       1  UNL1        0.0618
     36 H          -3.0490    4.3784   -1.4376 H       1  UNL1        0.0618
     37 H          -0.8810    3.3615   -1.1630 H       1  UNL1        0.0624
     38 H           0.5838    2.8210   -2.4269 H       1  UNL1        0.0813
     39 H           3.0282    2.8427   -2.7506 H       1  UNL1        0.1648
     40 H           4.2807    1.0722   -1.5048 H       1  UNL1        0.0813
@<TRIPOS>BOND
     1     1     2   ar
     2     2     3   ar
     3     3     4   ar
     4     4     5   ar
     5     4     6    1
     6     6     7   ar
     7     7     8   ar
     8     8     9   ar
     9     9    10   ar
    10    10    11   ar
    11    11    12   ar
    12    12    13   ar
    13    13    14   ar
    14    14    15   ar
    15    15    16   ar
    16    16    17   ar
    17    17    18   ar
    18    18    19   ar
    19    19    20   ar
    20    20    21   ar
    21    21    22   ar
    22    22    23   ar
    23    23    24   ar
    24    24    25   ar
    25    25    26   ar
    26     5     1   ar
    27    26     6   ar
    28    21     8   ar
    29    26    22   ar
    30    14     9   ar
    31    20    15   ar
    32     1    27    1
    33     3    28    1
    34     7    29    1
    35    10    30    1
    36    11    31    1
    37    12    32    1
    38    13    33    1
    39    16    34    1
    40    17    35    1
    41    18    36    1
    42    19    37    1
    43    23    38    1
    44    24    39    1
    45    25    40    1
