@<TRIPOS>MOLECULE
*****
 46 53 0 0 0
SMALL
GASTEIGER

@<TRIPOS>ATOM
      1 C           7.7267   -0.6199   -0.0660 C.ar    1  UNL1        0.0652
      2 N           7.4101   -1.3082   -1.1396 N.ar    1  UNL1       -0.2551
      3 C           6.0408   -1.2570   -1.3201 C.ar    1  UNL1        0.0425
      4 C           5.3284   -0.5376   -0.3771 C.ar    1  UNL1        0.0395
      5 S           6.4263    0.1158    0.7733 S.2     1  UNL1       -0.0754
      6 C           3.9037   -0.2984   -0.2640 C.ar    1  UNL1        0.0015
      7 C           3.3007    0.9634   -0.1293 C.ar    1  UNL1       -0.0444
      8 C           1.8585    1.1840   -0.0333 C.ar    1  UNL1       -0.0078
      9 C           1.2875    2.4732    0.1442 C.ar    1  UNL1       -0.0025
     10 C           2.0317    3.6289    0.2645 C.ar    1  UNL1       -0.0160
     11 S           1.0566    5.0193    0.4849 S.2     1  UNL1       -0.1038
     12 C          -0.3791    4.0898    0.4226 C.ar    1  UNL1       -0.0160
     13 C          -0.1289    2.7458    0.2393 C.ar    1  UNL1       -0.0026
     14 C          -1.1546    1.7660    0.1378 C.ar    1  UNL1       -0.0085
     15 C          -2.5519    2.0586    0.2098 C.ar    1  UNL1       -0.0457
     16 C          -3.5240    1.0708    0.0520 C.ar    1  UNL1       -0.0166
     17 C          -4.9358    1.3925    0.1274 C.ar    1  UNL1       -0.0534
     18 C          -5.9964    0.4688   -0.0389 C.ar    1  UNL1       -0.0520
     19 C          -5.4955   -0.7980   -0.2899 C.ar    1  UNL1        0.0000
     20 C          -6.2418   -1.9275   -0.5028 C.ar    1  UNL1        0.0094
     21 N          -5.3521   -2.9602   -0.7111 N.ar    1  UNL1       -0.3659
     22 C          -4.0537   -2.4974   -0.6315 C.ar    1  UNL1        0.0100
     23 C          -4.1170   -1.1496   -0.3703 C.ar    1  UNL1        0.0071
     24 C          -3.0427   -0.2422   -0.2004 C.ar    1  UNL1       -0.0081
     25 C          -1.6530   -0.5323   -0.2658 C.ar    1  UNL1       -0.0451
     26 C          -0.6495    0.4401   -0.0662 C.ar    1  UNL1       -0.0083
     27 C           0.8187    0.1518   -0.0939 C.ar    1  UNL1        0.0012
     28 C           1.5104   -1.1074   -0.1676 C.ar    1  UNL1        0.0287
     29 C           0.9960   -2.3816   -0.0882 C.ar    1  UNL1        0.1000
     30 O           1.9863   -3.3167   -0.1735 O.2     1  UNL1       -0.4698
     31 C           3.1670   -2.6512   -0.2691 C.ar    1  UNL1        0.1000
     32 C           2.9379   -1.2985   -0.2538 C.ar    1  UNL1        0.0287
     33 H           8.7492   -0.5181    0.2738 H       1  UNL1        0.0907
     34 H           5.6069   -1.7684   -2.1716 H       1  UNL1        0.0841
     35 H           3.9656    1.8253   -0.1051 H       1  UNL1        0.0630
     36 H           3.1023    3.7668    0.2433 H       1  UNL1        0.0700
     37 H          -1.3219    4.6065    0.5248 H       1  UNL1        0.0700
     38 H          -2.8822    3.0792    0.3827 H       1  UNL1        0.0630
     39 H          -5.2154    2.4292    0.3252 H       1  UNL1        0.0624
     40 H          -7.0403    0.7387    0.0222 H       1  UNL1        0.0624
     41 H          -7.3085   -2.1034   -0.5277 H       1  UNL1        0.0813
     42 H          -5.6133   -3.9202   -0.8954 H       1  UNL1        0.1648
     43 H          -3.2250   -3.1774   -0.7699 H       1  UNL1        0.0813
     44 H          -1.3956   -1.5483   -0.5232 H       1  UNL1        0.0630
     45 H           0.0201   -2.8169    0.0518 H       1  UNL1        0.1036
     46 H           4.0469   -3.2783   -0.3108 H       1  UNL1        0.1036
@<TRIPOS>BOND
     1     1     2   ar
     2     2     3   ar
     3     3     4   ar
     4     4     5   ar
     5     4     6    1
     6     6     7   ar
     7     7     8   ar
     8     8     9   ar
     9     9    10   ar
    10    10    11   ar
    11    11    12   ar
    12    12    13   ar
    13    13    14   ar
    14    14    15   ar
    15    15    16   ar
    16    16    17   ar
    17    17    18   ar
    18    18    19   ar
    19    19    20   ar
    20    20    21   ar
    21    21    22   ar
    22    22    23   ar
    23    23    24   ar
    24    24    25   ar
    25    25    26   ar
    26    26    27   ar
    27    27    28   ar
    28    28    29   ar
    29    29    30   ar
    30    30    31   ar
    31    31    32   ar
    32     5     1   ar
    33    32     6   ar
    34    27     8   ar
    35    32    28   ar
    36    13     9   ar
    37    26    14   ar
    38    24    16   ar
    39    23    19   ar
    40     1    33    1
    41     3    34    1
    42     7    35    1
    43    10    36    1
    44    12    37    1
    45    15    38    1
    46    17    39    1
    47    18    40    1
    48    20    41    1
    49    21    42    1
    50    22    43    1
    51    25    44    1
    52    29    45    1
    53    31    46    1
