@<TRIPOS>MOLECULE
*****
 30 35 0 0 0
SMALL
GASTEIGER

@<TRIPOS>ATOM
      1 C           5.6690   -0.2425   -0.9957 C.ar    1  UNL1        0.0653
      2 N           5.6233   -1.4720   -0.5359 N.ar    1  UNL1       -0.2550
      3 C           4.3199   -1.7707   -0.1803 C.ar    1  UNL1        0.0439
      4 C           3.3869   -0.7666   -0.3727 C.ar    1  UNL1        0.0549
      5 S           4.1836    0.6104   -1.0284 S.2     1  UNL1       -0.0740
      6 C           1.9783   -0.7983   -0.0953 C.ar    1  UNL1        0.0557
      7 C           1.2042   -1.8238    0.4271 C.ar    1  UNL1       -0.0260
      8 C          -0.0962   -1.3170    0.4866 C.ar    1  UNL1        0.0291
      9 C          -1.2852   -1.9571    0.9458 C.ar    1  UNL1        0.1096
     10 N          -1.2957   -3.1990    1.4035 N.ar    1  UNL1       -0.1901
     11 S          -2.9103   -3.4240    1.7908 S.2     1  UNL1        0.1165
     12 N          -3.5450   -1.9332    1.3635 N.ar    1  UNL1       -0.1901
     13 C          -2.5206   -1.1855    0.8958 C.ar    1  UNL1        0.1083
     14 C          -2.5950    0.1654    0.4142 C.ar    1  UNL1        0.0145
     15 C          -3.8226    0.8953    0.3780 C.ar    1  UNL1       -0.0497
     16 C          -3.9161    2.2185   -0.0900 C.ar    1  UNL1       -0.0328
     17 C          -2.7137    2.8188   -0.5371 C.ar    1  UNL1        0.1006
     18 N          -2.5971    4.0659   -1.0168 N.ar    1  UNL1       -0.1908
     19 S          -0.9968    4.2800   -1.3973 S.2     1  UNL1        0.1165
     20 N          -0.3716    2.8005   -0.9724 N.ar    1  UNL1       -0.1901
     21 C          -1.4020    2.0667   -0.5087 C.ar    1  UNL1        0.1096
     22 C          -1.3504    0.7280   -0.0272 C.ar    1  UNL1        0.0363
     23 C          -0.1613   -0.0218    0.0236 C.ar    1  UNL1        0.0591
     24 N           1.1390    0.2768   -0.3314 N.ar    1  UNL1       -0.3531
     25 H           6.5902    0.2119   -1.3363 H       1  UNL1        0.0907
     26 H           4.1048   -2.7537    0.2210 H       1  UNL1        0.0842
     27 H           1.5436   -2.8079    0.7242 H       1  UNL1        0.0646
     28 H          -4.7357    0.4098    0.7284 H       1  UNL1        0.0625
     29 H          -4.8572    2.7559   -0.1096 H       1  UNL1        0.0640
     30 H           1.4296    1.1690   -0.7136 H       1  UNL1        0.1659
@<TRIPOS>BOND
     1     1     2   ar
     2     2     3   ar
     3     3     4   ar
     4     4     5   ar
     5     4     6    1
     6     6     7   ar
     7     7     8   ar
     8     8     9   ar
     9     9    10   ar
    10    10    11   ar
    11    11    12   ar
    12    12    13   ar
    13    13    14   ar
    14    14    15   ar
    15    15    16   ar
    16    16    17   ar
    17    17    18   ar
    18    18    19   ar
    19    19    20   ar
    20    20    21   ar
    21    21    22   ar
    22    22    23   ar
    23    23    24   ar
    24     5     1   ar
    25    24     6   ar
    26    23     8   ar
    27    13     9   ar
    28    22    14   ar
    29    21    17   ar
    30     1    25    1
    31     3    26    1
    32     7    27    1
    33    15    28    1
    34    16    29    1
    35    24    30    1
