@<TRIPOS>MOLECULE
*****
 42 48 0 0 0
SMALL
GASTEIGER

@<TRIPOS>ATOM
      1 C           6.3539    2.9186    2.7035 C.ar    1  UNL1        0.0652
      2 N           6.7761    1.6763    2.6315 N.ar    1  UNL1       -0.2551
      3 C           5.7870    0.8968    2.0619 C.ar    1  UNL1        0.0425
      4 C           4.6256    1.5550    1.6984 C.ar    1  UNL1        0.0395
      5 S           4.7764    3.2187    2.1051 S.2     1  UNL1       -0.0754
      6 C           3.4193    1.0489    1.0759 C.ar    1  UNL1        0.0015
      7 C           2.1087    1.2457    1.5556 C.ar    1  UNL1       -0.0450
      8 C           0.9094    0.7260    0.9418 C.ar    1  UNL1       -0.0160
      9 C          -0.2979    1.0387    1.5479 C.ar    1  UNL1       -0.0534
     10 C          -1.5180    0.5987    1.0266 C.ar    1  UNL1       -0.0528
     11 C          -1.6271   -0.2066   -0.1227 C.ar    1  UNL1       -0.0089
     12 C          -0.4096   -0.6047   -0.7401 C.ar    1  UNL1       -0.0089
     13 C          -0.5138   -1.5230   -1.8030 C.ar    1  UNL1       -0.0528
     14 C          -1.7316   -2.0074   -2.2904 C.ar    1  UNL1       -0.0534
     15 C          -2.9447   -1.5952   -1.7605 C.ar    1  UNL1       -0.0166
     16 C          -4.1468   -2.1436   -2.3502 C.ar    1  UNL1       -0.0533
     17 C          -5.4623   -1.8363   -1.9592 C.ar    1  UNL1       -0.0504
     18 C          -5.4312   -0.9135   -0.9353 C.ar    1  UNL1        0.0205
     19 C          -6.5338   -0.3631   -0.3414 C.ar    1  UNL1        0.0994
     20 O          -6.1332    0.5381    0.5974 O.2     1  UNL1       -0.4698
     21 C          -4.7648    0.5520    0.5945 C.ar    1  UNL1        0.1000
     22 C          -4.2678   -0.3491   -0.3181 C.ar    1  UNL1        0.0281
     23 C          -2.9069   -0.6598   -0.6647 C.ar    1  UNL1        0.0006
     24 C           0.8668   -0.0919   -0.2431 C.ar    1  UNL1        0.0006
     25 C           2.2153   -0.2329   -0.7257 C.ar    1  UNL1        0.0287
     26 C           2.6706   -0.8197   -1.8830 C.ar    1  UNL1        0.1000
     27 O           4.0288   -0.7144   -1.9794 O.2     1  UNL1       -0.4698
     28 C           4.4627   -0.0251   -0.8902 C.ar    1  UNL1        0.1000
     29 C           3.3938    0.3009   -0.0951 C.ar    1  UNL1        0.0287
     30 H           6.9623    3.7121    3.1174 H       1  UNL1        0.0907
     31 H           5.9670   -0.1645    1.9355 H       1  UNL1        0.0841
     32 H           1.9980    1.8335    2.4703 H       1  UNL1        0.0630
     33 H          -0.3245    1.6462    2.4520 H       1  UNL1        0.0624
     34 H          -2.3939    0.8829    1.5937 H       1  UNL1        0.0624
     35 H           0.3686   -1.9382   -2.2706 H       1  UNL1        0.0624
     36 H          -1.7005   -2.7245   -3.1098 H       1  UNL1        0.0624
     37 H          -4.0406   -2.8555   -3.1726 H       1  UNL1        0.0624
     38 H          -6.3426   -2.2569   -2.4224 H       1  UNL1        0.0625
     39 H          -7.6023   -0.4728   -0.4606 H       1  UNL1        0.1035
     40 H          -4.3484    1.2664    1.2857 H       1  UNL1        0.1036
     41 H           2.2240   -1.3138   -2.7305 H       1  UNL1        0.1036
     42 H           5.5280    0.1568   -0.8544 H       1  UNL1        0.1036
@<TRIPOS>BOND
     1     1     2   ar
     2     2     3   ar
     3     3     4   ar
     4     4     5   ar
     5     4     6    1
     6     6     7   ar
     7     7     8   ar
     8     8     9   ar
     9     9    10   ar
    10    10    11   ar
    11    11    12   ar
    12    12    13   ar
    13    13    14   ar
    14    14    15   ar
    15    15    16   ar
    16    16    17   ar
    17    17    18   ar
    18    18    19   ar
    19    19    20   ar
    20    20    21   ar
    21    21    22   ar
    22    22    23   ar
    23    12    24   ar
    24    24    25   ar
    25    25    26   ar
    26    26    27   ar
    27    27    28   ar
    28    28    29   ar
    29     5     1   ar
    30    29     6   ar
    31    24     8   ar
    32    29    25   ar
    33    23    11   ar
    34    23    15   ar
    35    22    18   ar
    36     1    30    1
    37     3    31    1
    38     7    32    1
    39     9    33    1
    40    10    34    1
    41    13    35    1
    42    14    36    1
    43    16    37    1
    44    17    38    1
    45    19    39    1
    46    21    40    1
    47    26    41    1
    48    28    42    1
