@<TRIPOS>MOLECULE
*****
 44 50 0 0 0
SMALL
GASTEIGER

@<TRIPOS>ATOM
      1 SI         -4.4178    2.6208    2.8323 Si      1  UNL1        0.0000
      2 C          -5.6369    1.3626    2.1823 C.2     1  UNL1        0.0000
      3 C          -5.0217    0.4571    1.3984 C.ar    1  UNL1        0.0000
      4 C          -5.6989   -0.6433    0.7463 C.ar    1  UNL1        0.0000
      5 C          -5.0093   -1.5041   -0.0224 C.ar    1  UNL1        0.0000
      6 C          -3.5482   -1.3662   -0.2323 C.ar    1  UNL1        0.0000
      7 C          -2.8863   -2.2919   -1.0426 C.ar    1  UNL1        0.0000
      8 C          -1.5049   -2.1999   -1.2685 C.ar    1  UNL1        0.0000
      9 C          -0.7594   -1.1597   -0.6727 C.ar    1  UNL1        0.0000
     10 C          -1.4498   -0.2494    0.1323 C.ar    1  UNL1        0.0000
     11 O          -0.5795    0.6767    0.6196 O.2     1  UNL1        0.0000
     12 C           0.6533    0.3805    0.1454 C.ar    1  UNL1        0.0000
     13 C           1.7905    1.1200    0.4439 C.ar    1  UNL1        0.0000
     14 C           3.0070    0.6950   -0.1140 C.ar    1  UNL1        0.0000
     15 C           4.2114    1.4781    0.2004 C.ar    1  UNL1        0.0000
     16 N           4.9276    2.1520   -0.6774 N.ar    1  UNL1        0.0000
     17 C           5.9898    2.7663   -0.0445 C.ar    1  UNL1        0.0000
     18 C           6.0822    2.5472    1.3119 C.ar    1  UNL1        0.0000
     19 S           4.7958    1.5376    1.8226 S.2     1  UNL1        0.0000
     20 C           3.0580   -0.4439   -0.9651 C.ar    1  UNL1        0.0000
     21 C           4.2563   -0.9088   -1.5595 C.ar    1  UNL1        0.0000
     22 C           4.2880   -2.0339   -2.3856 C.ar    1  UNL1        0.0000
     23 C           3.1201   -2.7343   -2.6451 C.ar    1  UNL1        0.0000
     24 C           1.9178   -2.3110   -2.0808 C.ar    1  UNL1        0.0000
     25 C           1.8618   -1.1749   -1.2422 C.ar    1  UNL1        0.0000
     26 C           0.6235   -0.7455   -0.6657 C.ar    1  UNL1        0.0000
     27 C          -2.8283   -0.3086    0.3806 C.ar    1  UNL1        0.0000
     28 C          -3.5610    0.6529    1.2307 C.ar    1  UNL1        0.0000
     29 C          -3.0731    1.7196    1.8976 C.2     1  UNL1        0.0000
     30 H          -4.6735    3.9807    2.2986 H       1  UNL1        0.0000
     31 H          -4.2491    2.5340    4.3032 H       1  UNL1        0.0000
     32 H          -6.6836    1.4080    2.4362 H       1  UNL1        0.0000
     33 H          -6.7682   -0.7602    0.8879 H       1  UNL1        0.0000
     34 H          -5.5198   -2.3278   -0.5104 H       1  UNL1        0.0000
     35 H          -3.4374   -3.1034   -1.5138 H       1  UNL1        0.0000
     36 H          -1.0359   -2.9416   -1.9052 H       1  UNL1        0.0000
     37 H           1.7221    1.9959    1.0800 H       1  UNL1        0.0000
     38 H           6.6757    3.3688   -0.6276 H       1  UNL1        0.0000
     39 H           6.8215    2.9195    2.0060 H       1  UNL1        0.0000
     40 H           5.1973   -0.3868   -1.3909 H       1  UNL1        0.0000
     41 H           5.2282   -2.3555   -2.8263 H       1  UNL1        0.0000
     42 H           3.1414   -3.6096   -3.2891 H       1  UNL1        0.0000
     43 H           1.0299   -2.8858   -2.3115 H       1  UNL1        0.0000
     44 H          -2.0563    2.0727    1.9363 H       1  UNL1        0.0000
@<TRIPOS>BOND
     1     1     2    1
     2     2     3    2
     3     3     4   ar
     4     4     5   ar
     5     5     6   ar
     6     6     7   ar
     7     7     8   ar
     8     8     9   ar
     9     9    10   ar
    10    10    11   ar
    11    11    12   ar
    12    12    13   ar
    13    13    14   ar
    14    14    15    1
    15    15    16   ar
    16    16    17   ar
    17    17    18   ar
    18    18    19   ar
    19    14    20   ar
    20    20    21   ar
    21    21    22   ar
    22    22    23   ar
    23    23    24   ar
    24    24    25   ar
    25    25    26   ar
    26    10    27   ar
    27    27    28   ar
    28    28    29    2
    29    29     1    1
    30    28     3   ar
    31    27     6   ar
    32    26     9   ar
    33    26    12   ar
    34    19    15   ar
    35    25    20   ar
    36     1    30    1
    37     1    31    1
    38     2    32    1
    39     4    33    1
    40     5    34    1
    41     7    35    1
    42     8    36    1
    43    13    37    1
    44    17    38    1
    45    18    39    1
    46    21    40    1
    47    22    41    1
    48    23    42    1
    49    24    43    1
    50    29    44    1
