@<TRIPOS>MOLECULE
*****
 34 39 0 0 0
SMALL
GASTEIGER

@<TRIPOS>ATOM
      1 C          -6.1267    0.4429   -1.1382 C.ar    1  UNL1        0.0652
      2 N          -6.0499    0.7465    0.1381 N.ar    1  UNL1       -0.2551
      3 C          -4.7223    0.7287    0.5238 C.ar    1  UNL1        0.0425
      4 C          -3.8049    0.4032   -0.4593 C.ar    1  UNL1        0.0395
      5 S          -4.6429    0.1230   -1.9339 S.2     1  UNL1       -0.0754
      6 C          -2.3589    0.2860   -0.3879 C.ar    1  UNL1        0.0028
      7 C          -1.4748    0.9626   -1.2543 C.ar    1  UNL1       -0.0098
      8 C          -0.0808    0.8088   -1.0958 C.ar    1  UNL1        0.1375
      9 O           0.8595    1.3924   -1.9045 O.2     1  UNL1       -0.4547
     10 C           2.0902    1.0210   -1.4300 C.ar    1  UNL1        0.1369
     11 C           3.3171    1.4019   -2.0097 C.ar    1  UNL1       -0.0181
     12 C           4.5246    0.9892   -1.4210 C.ar    1  UNL1       -0.0500
     13 C           4.3506    0.2513   -0.2497 C.ar    1  UNL1       -0.0101
     14 C           5.4323   -0.1776    0.4862 C.ar    1  UNL1       -0.0166
     15 S           4.9455   -0.9914    1.9259 S.2     1  UNL1       -0.1039
     16 C           3.2714   -0.7697    1.5733 C.ar    1  UNL1       -0.0159
     17 C           3.1317   -0.1445    0.3710 C.ar    1  UNL1        0.0005
     18 C           1.9237    0.2331   -0.2974 C.ar    1  UNL1        0.0367
     19 C           0.5633    0.0480   -0.1273 C.ar    1  UNL1        0.0377
     20 C          -0.3029   -0.7042    0.7210 C.ar    1  UNL1        0.0114
     21 C          -0.0552   -1.6636    1.6564 C.ar    1  UNL1        0.0101
     22 N          -1.2937   -2.0560    2.1244 N.ar    1  UNL1       -0.3659
     23 C          -2.2933   -1.3831    1.4499 C.ar    1  UNL1        0.0100
     24 C          -1.6992   -0.5282    0.5451 C.ar    1  UNL1        0.0085
     25 H          -7.0710    0.3965   -1.6645 H       1  UNL1        0.0907
     26 H          -4.4718    0.9658    1.5512 H       1  UNL1        0.0841
     27 H          -1.8493    1.6091   -2.0424 H       1  UNL1        0.0661
     28 H           3.3219    2.0132   -2.9072 H       1  UNL1        0.0655
     29 H           5.4863    1.2632   -1.8380 H       1  UNL1        0.0625
     30 H           6.4863   -0.0477    0.2811 H       1  UNL1        0.0699
     31 H           2.5422   -1.0881    2.2953 H       1  UNL1        0.0700
     32 H           0.8292   -2.1541    2.0258 H       1  UNL1        0.0813
     33 H          -1.4489   -2.7688    2.8263 H       1  UNL1        0.1648
     34 H          -3.3291   -1.6094    1.6663 H       1  UNL1        0.0813
@<TRIPOS>BOND
     1     1     2   ar
     2     2     3   ar
     3     3     4   ar
     4     4     5   ar
     5     4     6    1
     6     6     7   ar
     7     7     8   ar
     8     8     9   ar
     9     9    10   ar
    10    10    11   ar
    11    11    12   ar
    12    12    13   ar
    13    13    14   ar
    14    14    15   ar
    15    15    16   ar
    16    16    17   ar
    17    17    18   ar
    18    18    19   ar
    19    19    20   ar
    20    20    21   ar
    21    21    22   ar
    22    22    23   ar
    23    23    24   ar
    24     5     1   ar
    25    24     6   ar
    26    19     8   ar
    27    24    20   ar
    28    18    10   ar
    29    17    13   ar
    30     1    25    1
    31     3    26    1
    32     7    27    1
    33    11    28    1
    34    12    29    1
    35    14    30    1
    36    16    31    1
    37    21    32    1
    38    22    33    1
    39    23    34    1
