@<TRIPOS>MOLECULE
*****
 37 43 0 0 0
SMALL
GASTEIGER

@<TRIPOS>ATOM
      1 C           7.7495    0.9771    0.1268 C.ar    1  UNL1        0.0653
      2 N           7.6182   -0.2445   -0.3346 N.ar    1  UNL1       -0.2551
      3 C           6.2713   -0.5516   -0.4184 C.ar    1  UNL1        0.0430
      4 C           5.3831    0.4370   -0.0204 C.ar    1  UNL1        0.0454
      5 S           6.2988    1.8118    0.4801 S.2     1  UNL1       -0.0749
      6 C           3.9344    0.4102    0.0049 C.ar    1  UNL1        0.0291
      7 C           3.0849    1.4221    0.4108 C.ar    1  UNL1       -0.0320
      8 C           1.7140    1.0398    0.2990 C.ar    1  UNL1        0.0282
      9 S           0.1958    1.8443    0.6423 S.2     1  UNL1       -0.0870
     10 C          -0.7310    0.4638    0.1399 C.ar    1  UNL1        0.0300
     11 C           0.1638   -0.5171   -0.2552 C.ar    1  UNL1        0.0148
     12 C          -0.3195   -1.7719   -0.7206 C.ar    1  UNL1        0.0297
     13 C           0.2943   -2.9022   -1.1657 C.ar    1  UNL1        0.1000
     14 O          -0.6808   -3.8103   -1.4872 O.2     1  UNL1       -0.4698
     15 C          -1.8913   -3.2201   -1.2330 C.ar    1  UNL1        0.1000
     16 C          -1.7153   -1.9416   -0.7509 C.ar    1  UNL1        0.0282
     17 C          -2.7249   -1.0294   -0.3791 C.ar    1  UNL1       -0.0054
     18 C          -4.1510   -1.3074   -0.4499 C.ar    1  UNL1       -0.0527
     19 C          -5.1466   -0.3861   -0.0749 C.ar    1  UNL1       -0.0520
     20 C          -4.5794    0.8015    0.3629 C.ar    1  UNL1        0.0000
     21 C          -5.2988    1.8860    0.7932 C.ar    1  UNL1        0.0094
     22 N          -4.3869    2.8542    1.1391 N.ar    1  UNL1       -0.3659
     23 C          -3.1016    2.3944    0.9326 C.ar    1  UNL1        0.0100
     24 C          -3.1783    1.1096    0.4457 C.ar    1  UNL1        0.0082
     25 C          -2.1423    0.2267    0.0844 C.ar    1  UNL1        0.0063
     26 C           1.5393   -0.2297   -0.1796 C.ar    1  UNL1        0.0354
     27 S           3.0706   -0.9896   -0.5063 S.2     1  UNL1       -0.0865
     28 H           8.7183    1.4355    0.2774 H       1  UNL1        0.0907
     29 H           5.9949   -1.5332   -0.7850 H       1  UNL1        0.0841
     30 H           3.4033    2.3921    0.7720 H       1  UNL1        0.0640
     31 H           1.3077   -3.2411   -1.3195 H       1  UNL1        0.1036
     32 H          -2.7496   -3.8407   -1.4480 H       1  UNL1        0.1036
     33 H          -4.4830   -2.2797   -0.8116 H       1  UNL1        0.0624
     34 H          -6.2050   -0.5970   -0.1291 H       1  UNL1        0.0624
     35 H          -6.3612    2.0656    0.8876 H       1  UNL1        0.0813
     36 H          -4.6208    3.7723    1.4941 H       1  UNL1        0.1648
     37 H          -2.2751    3.0494    1.1615 H       1  UNL1        0.0813
@<TRIPOS>BOND
     1     1     2   ar
     2     2     3   ar
     3     3     4   ar
     4     4     5   ar
     5     4     6    1
     6     6     7   ar
     7     7     8   ar
     8     8     9   ar
     9     9    10   ar
    10    10    11   ar
    11    11    12   ar
    12    12    13   ar
    13    13    14   ar
    14    14    15   ar
    15    15    16   ar
    16    16    17   ar
    17    17    18   ar
    18    18    19   ar
    19    19    20   ar
    20    20    21   ar
    21    21    22   ar
    22    22    23   ar
    23    23    24   ar
    24    24    25   ar
    25    11    26   ar
    26    26    27   ar
    27     5     1   ar
    28    27     6   ar
    29    26     8   ar
    30    25    10   ar
    31    16    12   ar
    32    25    17   ar
    33    24    20   ar
    34     1    28    1
    35     3    29    1
    36     7    30    1
    37    13    31    1
    38    15    32    1
    39    18    33    1
    40    19    34    1
    41    21    35    1
    42    22    36    1
    43    23    37    1
