@<TRIPOS>MOLECULE
*****
 37 43 0 0 0
SMALL
GASTEIGER

@<TRIPOS>ATOM
      1 C           6.8370    1.5307   -0.0886 C.ar    1  UNL1        0.0652
      2 N           6.8687    0.5484    0.7844 N.ar    1  UNL1       -0.2551
      3 C           5.6049   -0.0011    0.8907 C.ar    1  UNL1        0.0425
      4 C           4.6307    0.5620    0.0873 C.ar    1  UNL1        0.0394
      5 S           5.3200    1.8444   -0.8235 S.2     1  UNL1       -0.0754
      6 C           3.2261    0.2262   -0.0544 C.ar    1  UNL1       -0.0005
      7 C           2.1941    1.0950    0.3347 C.ar    1  UNL1       -0.0385
      8 C           0.8244    0.7342    0.2103 C.ar    1  UNL1        0.0217
      9 S          -0.5141    1.7000    0.6501 S.2     1  UNL1       -0.0875
     10 C          -1.6892    0.5189    0.1767 C.ar    1  UNL1        0.0303
     11 C          -1.0579   -0.6381   -0.3269 C.ar    1  UNL1       -0.0018
     12 C          -1.9077   -1.6923   -0.7499 C.ar    1  UNL1       -0.0523
     13 C          -3.3025   -1.6036   -0.6802 C.ar    1  UNL1       -0.0533
     14 C          -3.9272   -0.4689   -0.1884 C.ar    1  UNL1       -0.0146
     15 C          -5.3459   -0.4327   -0.1406 C.ar    1  UNL1       -0.0518
     16 C          -6.0859    0.6596    0.3367 C.ar    1  UNL1       -0.0329
     17 C          -5.3354    1.7658    0.7859 C.ar    1  UNL1        0.1005
     18 N          -5.8599    2.8993    1.2757 N.ar    1  UNL1       -0.1908
     19 S          -4.5813    3.8792    1.6596 S.2     1  UNL1        0.1165
     20 N          -3.3135    2.9120    1.2228 N.ar    1  UNL1       -0.1901
     21 C          -3.8205    1.7592    0.7484 C.ar    1  UNL1        0.1086
     22 C          -3.1111    0.6179    0.2510 C.ar    1  UNL1        0.0246
     23 C           0.3690   -0.4727   -0.2917 C.ar    1  UNL1        0.0052
     24 C           1.4054   -1.4071   -0.7165 C.ar    1  UNL1       -0.0015
     25 C           1.2393   -2.6518   -1.2540 C.ar    1  UNL1       -0.0160
     26 S           2.7675   -3.3591   -1.6090 S.2     1  UNL1       -0.1038
     27 C           3.6134   -1.9766   -1.0378 C.ar    1  UNL1       -0.0160
     28 C           2.7654   -0.9928   -0.5675 C.ar    1  UNL1       -0.0020
     29 H           7.7152    2.1134   -0.3344 H       1  UNL1        0.0907
     30 H           5.4462   -0.8240    1.5779 H       1  UNL1        0.0841
     31 H           2.4437    2.0700    0.7525 H       1  UNL1        0.0635
     32 H          -1.5046   -2.6157   -1.1458 H       1  UNL1        0.0624
     33 H          -3.8871   -2.4558   -1.0249 H       1  UNL1        0.0624
     34 H          -5.9125   -1.2974   -0.4920 H       1  UNL1        0.0624
     35 H          -7.1689    0.6594    0.3614 H       1  UNL1        0.0640
     36 H           0.3604   -3.2263   -1.4831 H       1  UNL1        0.0700
     37 H           4.6938   -1.9795   -1.0913 H       1  UNL1        0.0700
@<TRIPOS>BOND
     1     1     2   ar
     2     2     3   ar
     3     3     4   ar
     4     4     5   ar
     5     4     6    1
     6     6     7   ar
     7     7     8   ar
     8     8     9   ar
     9     9    10   ar
    10    10    11   ar
    11    11    12   ar
    12    12    13   ar
    13    13    14   ar
    14    14    15   ar
    15    15    16   ar
    16    16    17   ar
    17    17    18   ar
    18    18    19   ar
    19    19    20   ar
    20    20    21   ar
    21    21    22   ar
    22    11    23   ar
    23    23    24   ar
    24    24    25   ar
    25    25    26   ar
    26    26    27   ar
    27    27    28   ar
    28     5     1   ar
    29    28     6   ar
    30    23     8   ar
    31    28    24   ar
    32    22    10   ar
    33    22    14   ar
    34    21    17   ar
    35     1    29    1
    36     3    30    1
    37     7    31    1
    38    12    32    1
    39    13    33    1
    40    15    34    1
    41    16    35    1
    42    25    36    1
    43    27    37    1
