@<TRIPOS>MOLECULE
*****
 39 45 0 0 0
SMALL
GASTEIGER

@<TRIPOS>ATOM
      1 C           7.1864    0.8349    1.9592 C.ar    1  UNL1        0.0652
      2 N           7.3355    1.2144    0.7099 N.ar    1  UNL1       -0.2551
      3 C           6.1379    1.0445    0.0412 C.ar    1  UNL1        0.0425
      4 C           5.0926    0.5290    0.7864 C.ar    1  UNL1        0.0395
      5 S           5.6312    0.2628    2.3970 S.2     1  UNL1       -0.0754
      6 C           3.7290    0.2189    0.3997 C.ar    1  UNL1        0.0020
      7 C           2.5835    0.7403    1.0539 C.ar    1  UNL1       -0.0384
      8 C           1.2630    0.4193    0.6206 C.ar    1  UNL1        0.0223
      9 S          -0.2446    0.9436    1.2653 S.2     1  UNL1       -0.0870
     10 C          -1.1586    0.0140    0.0617 C.ar    1  UNL1        0.0359
     11 C          -0.3156   -0.6629   -0.7917 C.ar    1  UNL1        0.0360
     12 S          -1.1943   -1.5740   -1.9720 S.2     1  UNL1       -0.0870
     13 C          -2.6954   -1.0456   -1.3184 C.ar    1  UNL1        0.0216
     14 C          -3.9545   -1.4241   -1.8223 C.ar    1  UNL1       -0.0468
     15 C          -5.1102   -0.9379   -1.2178 C.ar    1  UNL1       -0.0529
     16 C          -5.0405   -0.0831   -0.1223 C.ar    1  UNL1       -0.0172
     17 C          -6.2216    0.3932    0.4692 C.ar    1  UNL1       -0.0540
     18 C          -6.1782    1.2503    1.5671 C.ar    1  UNL1       -0.0612
     19 C          -4.9522    1.6424    2.0880 C.ar    1  UNL1       -0.0611
     20 C          -3.7661    1.1787    1.5128 C.ar    1  UNL1       -0.0534
     21 C          -3.7779    0.3082    0.3980 C.ar    1  UNL1       -0.0086
     22 C          -2.5691   -0.1889   -0.2198 C.ar    1  UNL1        0.0112
     23 C           1.0241   -0.4110   -0.4491 C.ar    1  UNL1        0.0143
     24 C           2.1294   -0.9729   -1.1475 C.ar    1  UNL1        0.0297
     25 C           2.2421   -1.8154   -2.2090 C.ar    1  UNL1        0.1000
     26 O           3.5788   -2.0275   -2.4328 O.2     1  UNL1       -0.4698
     27 C           4.2760   -1.3066   -1.4967 C.ar    1  UNL1        0.1000
     28 C           3.4104   -0.6182   -0.6760 C.ar    1  UNL1        0.0288
     29 H           7.9954    0.8794    2.6767 H       1  UNL1        0.0907
     30 H           6.0808    1.3194   -1.0057 H       1  UNL1        0.0841
     31 H           2.7075    1.4120    1.9023 H       1  UNL1        0.0635
     32 H          -4.0296   -2.0913   -2.6776 H       1  UNL1        0.0629
     33 H          -6.0740   -1.2420   -1.6220 H       1  UNL1        0.0624
     34 H          -7.1930    0.0987    0.0770 H       1  UNL1        0.0624
     35 H          -7.1013    1.6103    2.0137 H       1  UNL1        0.0618
     36 H          -4.9133    2.3109    2.9445 H       1  UNL1        0.0618
     37 H          -2.8375    1.5152    1.9579 H       1  UNL1        0.0624
     38 H           1.5725   -2.3348   -2.8784 H       1  UNL1        0.1036
     39 H           5.3513   -1.4041   -1.5601 H       1  UNL1        0.1036
@<TRIPOS>BOND
     1     1     2   ar
     2     2     3   ar
     3     3     4   ar
     4     4     5   ar
     5     4     6    1
     6     6     7   ar
     7     7     8   ar
     8     8     9   ar
     9     9    10   ar
    10    10    11   ar
    11    11    12   ar
    12    12    13   ar
    13    13    14   ar
    14    14    15   ar
    15    15    16   ar
    16    16    17   ar
    17    17    18   ar
    18    18    19   ar
    19    19    20   ar
    20    20    21   ar
    21    21    22   ar
    22    11    23   ar
    23    23    24   ar
    24    24    25   ar
    25    25    26   ar
    26    26    27   ar
    27    27    28   ar
    28     5     1   ar
    29    28     6   ar
    30    23     8   ar
    31    28    24   ar
    32    22    10   ar
    33    22    13   ar
    34    21    16   ar
    35     1    29    1
    36     3    30    1
    37     7    31    1
    38    14    32    1
    39    15    33    1
    40    17    34    1
    41    18    35    1
    42    19    36    1
    43    20    37    1
    44    25    38    1
    45    27    39    1
