@<TRIPOS>MOLECULE
*****
 36 40 0 0 0
SMALL
GASTEIGER

@<TRIPOS>ATOM
      1 C           7.2566   -1.1416   -1.2529 C.ar    1  UNL1        0.0652
      2 N           6.9346   -2.1242   -0.4414 N.ar    1  UNL1       -0.2551
      3 C           5.6025   -2.0028   -0.0932 C.ar    1  UNL1        0.0425
      4 C           4.9291   -0.9248   -0.6377 C.ar    1  UNL1        0.0394
      5 S           6.0046   -0.0364   -1.6402 S.2     1  UNL1       -0.0754
      6 C           3.5510   -0.5039   -0.4757 C.ar    1  UNL1       -0.0016
      7 C           2.6269   -0.4215   -1.5450 C.ar    1  UNL1       -0.0523
      8 C           1.2603   -0.0306   -1.3889 C.ar    1  UNL1       -0.0523
      9 C           0.6776    0.3187   -0.1474 C.ar    1  UNL1       -0.0015
     10 C          -0.7023    0.7365    0.0015 C.ar    1  UNL1        0.0400
     11 C          -1.2256    1.9363    0.4365 C.ar    1  UNL1        0.0433
     12 N          -2.6024    2.0127    0.4770 N.ar    1  UNL1       -0.2452
     13 C          -3.1391    0.8762    0.0679 C.ar    1  UNL1        0.1269
     14 S          -1.9857   -0.3299   -0.3862 S.2     1  UNL1       -0.0657
     15 C          -4.5858    0.5891    0.0068 C.ar    1  UNL1        0.0959
     16 C          -5.1640   -0.2040   -0.9843 C.ar    1  UNL1       -0.0337
     17 C          -6.5419   -0.4149   -0.9623 C.ar    1  UNL1       -0.0582
     18 C          -7.3050    0.1704    0.0398 C.ar    1  UNL1       -0.0436
     19 C          -6.6575    0.9482    0.9831 C.ar    1  UNL1        0.0283
     20 N          -5.3255    1.1681    0.9884 N.ar    1  UNL1       -0.2529
     21 C           1.5901    0.2410    0.9221 C.ar    1  UNL1       -0.0020
     22 C           1.2789    0.5043    2.2371 C.ar    1  UNL1       -0.0160
     23 S           2.6413    0.3242    3.2657 S.2     1  UNL1       -0.1038
     24 C           3.6598   -0.1276    1.9598 C.ar    1  UNL1       -0.0160
     25 C           2.9788   -0.1580    0.7637 C.ar    1  UNL1       -0.0020
     26 H           8.2538   -1.0311   -1.6586 H       1  UNL1        0.0907
     27 H           5.1650   -2.7392    0.5709 H       1  UNL1        0.0841
     28 H           2.9641   -0.6754   -2.5513 H       1  UNL1        0.0624
     29 H           0.6425    0.0036   -2.2877 H       1  UNL1        0.0624
     30 H          -0.6441    2.7980    0.7427 H       1  UNL1        0.0841
     31 H          -4.5689   -0.6466   -1.7757 H       1  UNL1        0.0640
     32 H          -7.0149   -1.0272   -1.7250 H       1  UNL1        0.0619
     33 H          -8.3791    0.0281    0.0833 H       1  UNL1        0.0633
     34 H          -7.2078    1.4322    1.7851 H       1  UNL1        0.0830
     35 H           0.3321    0.7956    2.6719 H       1  UNL1        0.0700
     36 H           4.7002   -0.3432    2.1615 H       1  UNL1        0.0700
@<TRIPOS>BOND
     1     1     2   ar
     2     2     3   ar
     3     3     4   ar
     4     4     5   ar
     5     4     6    1
     6     6     7   ar
     7     7     8   ar
     8     8     9   ar
     9     9    10    1
    10    10    11   ar
    11    11    12   ar
    12    12    13   ar
    13    13    14   ar
    14    13    15    1
    15    15    16   ar
    16    16    17   ar
    17    17    18   ar
    18    18    19   ar
    19    19    20   ar
    20     9    21   ar
    21    21    22   ar
    22    22    23   ar
    23    23    24   ar
    24    24    25   ar
    25     5     1   ar
    26    25     6   ar
    27    14    10   ar
    28    20    15   ar
    29    25    21   ar
    30     1    26    1
    31     3    27    1
    32     7    28    1
    33     8    29    1
    34    11    30    1
    35    16    31    1
    36    17    32    1
    37    18    33    1
    38    19    34    1
    39    22    35    1
    40    24    36    1
