@<TRIPOS>MOLECULE
*****
 41 46 0 0 0
SMALL
GASTEIGER

@<TRIPOS>ATOM
      1 C           8.4112    0.0715   -1.2839 C.ar    1  UNL1        0.0652
      2 N           8.2979   -1.1797   -0.9010 N.ar    1  UNL1       -0.2551
      3 C           6.9703   -1.4488   -0.6273 C.ar    1  UNL1        0.0425
      4 C           6.0800   -0.4023   -0.8065 C.ar    1  UNL1        0.0402
      5 S           6.9607    0.9801   -1.3363 S.2     1  UNL1       -0.0754
      6 C           4.6330   -0.3573   -0.5863 C.ar    1  UNL1        0.0083
      7 C           4.0421   -1.0812    0.4514 C.ar    1  UNL1       -0.0500
      8 C           2.6584   -1.0359    0.6424 C.ar    1  UNL1       -0.0351
      9 C           1.8722   -0.2635   -0.2101 C.ar    1  UNL1        0.0717
     10 N           2.4228    0.4439   -1.2251 N.ar    1  UNL1       -0.2543
     11 C           3.7691    0.3812   -1.3894 C.ar    1  UNL1        0.0365
     12 C           0.4205   -0.1874   -0.0737 C.ar    1  UNL1        0.0111
     13 C          -0.4296   -1.2798    0.2620 C.ar    1  UNL1       -0.0513
     14 C          -1.8622   -1.1991    0.4042 C.ar    1  UNL1       -0.0526
     15 C          -2.6258   -0.0155    0.2296 C.ar    1  UNL1       -0.0050
     16 C          -4.0700    0.0698    0.3543 C.ar    1  UNL1        0.0110
     17 C          -4.9115    0.5417   -0.6844 C.ar    1  UNL1       -0.0518
     18 C          -6.3209    0.6281   -0.5851 C.ar    1  UNL1       -0.0590
     19 C          -7.0302    0.2464    0.5635 C.ar    1  UNL1       -0.0335
     20 C          -6.2550   -0.2438    1.6403 C.ar    1  UNL1        0.1005
     21 N          -6.7405   -0.6620    2.8192 N.ar    1  UNL1       -0.1908
     22 S          -5.4327   -1.1266    3.7276 S.2     1  UNL1        0.1165
     23 N          -4.1937   -0.8300    2.6669 N.ar    1  UNL1       -0.1902
     24 C          -4.7478   -0.3398    1.5423 C.ar    1  UNL1        0.1076
     25 C          -1.7777    1.0498   -0.0932 C.ar    1  UNL1        0.0282
     26 C          -2.1132    2.3653   -0.2951 C.ar    1  UNL1        0.1000
     27 O          -0.9922    3.0947   -0.5719 O.2     1  UNL1       -0.4698
     28 C           0.0730    2.2401   -0.5337 C.ar    1  UNL1        0.1000
     29 C          -0.3534    0.9691   -0.2383 C.ar    1  UNL1        0.0296
     30 H           9.3641    0.5095   -1.5514 H       1  UNL1        0.0907
     31 H           6.7018   -2.4462   -0.2994 H       1  UNL1        0.0841
     32 H           4.6455   -1.6755    1.1333 H       1  UNL1        0.0625
     33 H           2.2127   -1.5896    1.4632 H       1  UNL1        0.0639
     34 H           4.1320    0.9625   -2.2334 H       1  UNL1        0.0836
     35 H           0.0185   -2.2637    0.4120 H       1  UNL1        0.0624
     36 H          -2.3870   -2.1216    0.6618 H       1  UNL1        0.0624
     37 H          -4.4540    0.8498   -1.6271 H       1  UNL1        0.0624
     38 H          -6.8801    1.0051   -1.4421 H       1  UNL1        0.0618
     39 H          -8.1094    0.3165    0.6279 H       1  UNL1        0.0640
     40 H          -3.0345    2.9298   -0.2765 H       1  UNL1        0.1036
     41 H           1.0358    2.6907   -0.7310 H       1  UNL1        0.1036
@<TRIPOS>BOND
     1     1     2   ar
     2     2     3   ar
     3     3     4   ar
     4     4     5   ar
     5     4     6    1
     6     6     7   ar
     7     7     8   ar
     8     8     9   ar
     9     9    10   ar
    10    10    11   ar
    11     9    12    1
    12    12    13   ar
    13    13    14   ar
    14    14    15   ar
    15    15    16    1
    16    16    17   ar
    17    17    18   ar
    18    18    19   ar
    19    19    20   ar
    20    20    21   ar
    21    21    22   ar
    22    22    23   ar
    23    23    24   ar
    24    15    25   ar
    25    25    26   ar
    26    26    27   ar
    27    27    28   ar
    28    28    29   ar
    29     5     1   ar
    30    11     6   ar
    31    29    12   ar
    32    24    16   ar
    33    29    25   ar
    34    24    20   ar
    35     1    30    1
    36     3    31    1
    37     7    32    1
    38     8    33    1
    39    11    34    1
    40    13    35    1
    41    14    36    1
    42    17    37    1
    43    18    38    1
    44    19    39    1
    45    26    40    1
    46    28    41    1
