@<TRIPOS>MOLECULE
*****
 44 50 0 0 0
SMALL
GASTEIGER

@<TRIPOS>ATOM
      1 C          -7.6598    1.7912    0.5671 C.ar    1  UNL1        0.0652
      2 N          -6.8971    2.6860    1.1485 N.ar    1  UNL1       -0.2551
      3 C          -5.5749    2.3056    1.0083 C.ar    1  UNL1        0.0425
      4 C          -5.3271    1.1232    0.3214 C.ar    1  UNL1        0.0388
      5 S          -6.8541    0.4738   -0.1638 S.2     1  UNL1       -0.0755
      6 C          -4.0417    0.4566    0.0086 C.ar    1  UNL1       -0.0078
      7 C          -3.9750   -0.7500   -0.7049 C.ar    1  UNL1       -0.0528
      8 C          -2.7528   -1.3792   -0.9996 C.ar    1  UNL1       -0.0514
      9 C          -1.5479   -0.7951   -0.5737 C.ar    1  UNL1        0.0081
     10 C          -1.6167    0.3995    0.1325 C.ar    1  UNL1        0.0481
     11 C          -2.8316    1.0392    0.4340 C.ar    1  UNL1       -0.0295
     12 N          -0.3237    0.7777    0.4418 N.ar    1  UNL1       -0.3536
     13 C           0.6256   -0.1145   -0.0273 C.ar    1  UNL1        0.0565
     14 C          -0.1734   -1.0738   -0.6500 C.ar    1  UNL1        0.0171
     15 C           0.4839   -2.1742   -1.2617 C.ar    1  UNL1        0.0097
     16 C          -0.0159   -3.2496   -1.9340 C.ar    1  UNL1        0.0101
     17 N           1.0903   -3.9857   -2.2998 N.ar    1  UNL1       -0.3659
     18 C           2.2428   -3.3637   -1.8548 C.ar    1  UNL1        0.0100
     19 C           1.8793   -2.2083   -1.1912 C.ar    1  UNL1        0.0078
     20 C           2.7388   -1.2697   -0.5769 C.ar    1  UNL1       -0.0062
     21 C           4.1354   -1.4182   -0.5743 C.ar    1  UNL1       -0.0527
     22 C           4.9310   -0.4666    0.0435 C.ar    1  UNL1       -0.0534
     23 C           4.3699    0.6482    0.6701 C.ar    1  UNL1       -0.0172
     24 C           5.2493    1.5646    1.2724 C.ar    1  UNL1       -0.0540
     25 C           4.7796    2.7009    1.9175 C.ar    1  UNL1       -0.0612
     26 C           3.4180    2.9307    1.9654 C.ar    1  UNL1       -0.0611
     27 C           2.5326    2.0235    1.3681 C.ar    1  UNL1       -0.0534
     28 C           2.9558    0.8455    0.6952 C.ar    1  UNL1       -0.0082
     29 C           2.0940   -0.1443    0.0505 C.ar    1  UNL1        0.0144
     30 H          -8.7384    1.8773    0.5482 H       1  UNL1        0.0907
     31 H          -4.8184    2.9488    1.4397 H       1  UNL1        0.0841
     32 H          -4.8762   -1.2454   -1.0583 H       1  UNL1        0.0624
     33 H          -2.7583   -2.3108   -1.5542 H       1  UNL1        0.0624
     34 H          -2.8151    1.9708    0.9894 H       1  UNL1        0.0644
     35 H          -0.1326    1.6179    0.9543 H       1  UNL1        0.1659
     36 H          -1.0097   -3.5790   -2.1946 H       1  UNL1        0.0813
     37 H           1.0647   -4.8542   -2.8180 H       1  UNL1        0.1648
     38 H           3.2033   -3.8148   -2.0605 H       1  UNL1        0.0813
     39 H           4.6129   -2.2693   -1.0494 H       1  UNL1        0.0624
     40 H           6.0098   -0.6101    0.0285 H       1  UNL1        0.0624
     41 H           6.3248    1.3976    1.2432 H       1  UNL1        0.0624
     42 H           5.4740    3.3980    2.3774 H       1  UNL1        0.0618
     43 H           3.0330    3.8153    2.4663 H       1  UNL1        0.0618
     44 H           1.4919    2.2846    1.4553 H       1  UNL1        0.0624
@<TRIPOS>BOND
     1     1     2   ar
     2     2     3   ar
     3     3     4   ar
     4     4     5   ar
     5     4     6    1
     6     6     7   ar
     7     7     8   ar
     8     8     9   ar
     9     9    10   ar
    10    10    11   ar
    11    10    12   ar
    12    12    13   ar
    13    13    14   ar
    14    14    15   ar
    15    15    16   ar
    16    16    17   ar
    17    17    18   ar
    18    18    19   ar
    19    19    20   ar
    20    20    21   ar
    21    21    22   ar
    22    22    23   ar
    23    23    24   ar
    24    24    25   ar
    25    25    26   ar
    26    26    27   ar
    27    27    28   ar
    28    28    29   ar
    29     5     1   ar
    30    11     6   ar
    31    29    13   ar
    32    14     9   ar
    33    19    15   ar
    34    29    20   ar
    35    28    23   ar
    36     1    30    1
    37     3    31    1
    38     7    32    1
    39     8    33    1
    40    11    34    1
    41    12    35    1
    42    16    36    1
    43    17    37    1
    44    18    38    1
    45    21    39    1
    46    22    40    1
    47    24    41    1
    48    25    42    1
    49    26    43    1
    50    27    44    1
