@<TRIPOS>MOLECULE
*****
 46 53 0 0 0
SMALL
GASTEIGER

@<TRIPOS>ATOM
      1 C           7.8259    1.1410   -0.4331 C.ar    1  UNL1        0.0652
      2 N           7.8764    0.0180    0.2460 N.ar    1  UNL1       -0.2551
      3 C           6.5893   -0.4377    0.4599 C.ar    1  UNL1        0.0425
      4 C           5.5667    0.3424   -0.0558 C.ar    1  UNL1        0.0402
      5 S           6.2630    1.7053   -0.8465 S.2     1  UNL1       -0.0754
      6 C           4.1195    0.1293   -0.0215 C.ar    1  UNL1        0.0089
      7 C           3.5781   -1.1441   -0.1090 C.ar    1  UNL1        0.0365
      8 N           2.2503   -1.4374   -0.0712 N.ar    1  UNL1       -0.2537
      9 C           1.3262   -0.4549    0.0519 C.ar    1  UNL1        0.0800
     10 C           1.8154    0.8732    0.1523 C.ar    1  UNL1        0.0107
     11 C           3.2030    1.1626    0.1208 C.ar    1  UNL1       -0.0422
     12 C           0.7843    1.8137    0.3394 C.ar    1  UNL1        0.0092
     13 C           0.9530    3.1504    0.6196 C.ar    1  UNL1        0.0101
     14 N          -0.2923    3.6690    0.8755 N.ar    1  UNL1       -0.3659
     15 C          -1.2383    2.6760    0.7691 C.ar    1  UNL1        0.0100
     16 C          -0.6163    1.5289    0.3282 C.ar    1  UNL1        0.0084
     17 C          -1.2188    0.2590    0.1037 C.ar    1  UNL1        0.0023
     18 C          -2.6867   -0.0767   -0.0256 C.ar    1  UNL1       -0.0006
     19 C          -3.8185    0.7501   -0.3528 C.ar    1  UNL1       -0.0026
     20 C          -3.7265    1.9954   -0.9356 C.ar    1  UNL1       -0.0160
     21 S          -5.2582    2.7304   -1.1896 S.2     1  UNL1       -0.1039
     22 C          -6.0873    1.3197   -0.6847 C.ar    1  UNL1       -0.0166
     23 C          -5.2060    0.3277   -0.3271 C.ar    1  UNL1       -0.0103
     24 C          -5.6620   -0.9462   -0.0183 C.ar    1  UNL1       -0.0529
     25 C          -4.5896   -1.8294    0.1618 C.ar    1  UNL1       -0.0528
     26 C          -3.1921   -1.4274    0.1236 C.ar    1  UNL1       -0.0075
     27 C          -2.1150   -2.3367    0.1947 C.ar    1  UNL1        0.0078
     28 C          -2.2350   -3.7066    0.2852 C.ar    1  UNL1        0.0100
     29 N          -0.9687   -4.2343    0.2929 N.ar    1  UNL1       -0.3659
     30 C          -0.0436   -3.2239    0.2115 C.ar    1  UNL1        0.0101
     31 C          -0.7135   -2.0212    0.1421 C.ar    1  UNL1        0.0098
     32 C          -0.1247   -0.7248    0.0858 C.ar    1  UNL1        0.0184
     33 H           8.7178    1.6834   -0.7188 H       1  UNL1        0.0907
     34 H           6.4528   -1.3592    1.0138 H       1  UNL1        0.0841
     35 H           4.2112   -2.0204   -0.2275 H       1  UNL1        0.0836
     36 H           3.5395    2.1896    0.2212 H       1  UNL1        0.0631
     37 H           1.8310    3.7742    0.7158 H       1  UNL1        0.0813
     38 H          -0.4800    4.6203    1.1665 H       1  UNL1        0.1648
     39 H          -2.2607    2.8926    1.0446 H       1  UNL1        0.0813
     40 H          -2.8474    2.5383   -1.2476 H       1  UNL1        0.0700
     41 H          -7.1675    1.2858   -0.7241 H       1  UNL1        0.0699
     42 H          -6.6956   -1.2637   -0.0019 H       1  UNL1        0.0624
     43 H          -4.8315   -2.8784    0.3251 H       1  UNL1        0.0624
     44 H          -3.0908   -4.3645    0.3370 H       1  UNL1        0.0813
     45 H          -0.7456   -5.2194    0.3513 H       1  UNL1        0.1648
     46 H           1.0088   -3.4697    0.2174 H       1  UNL1        0.0813
@<TRIPOS>BOND
     1     1     2   ar
     2     2     3   ar
     3     3     4   ar
     4     4     5   ar
     5     4     6    1
     6     6     7   ar
     7     7     8   ar
     8     8     9   ar
     9     9    10   ar
    10    10    11   ar
    11    10    12   ar
    12    12    13   ar
    13    13    14   ar
    14    14    15   ar
    15    15    16   ar
    16    16    17   ar
    17    17    18   ar
    18    18    19   ar
    19    19    20   ar
    20    20    21   ar
    21    21    22   ar
    22    22    23   ar
    23    23    24   ar
    24    24    25   ar
    25    25    26   ar
    26    26    27   ar
    27    27    28   ar
    28    28    29   ar
    29    29    30   ar
    30    30    31   ar
    31    31    32   ar
    32     5     1   ar
    33    11     6   ar
    34    16    12   ar
    35    32    17   ar
    36    32     9   ar
    37    26    18   ar
    38    31    27   ar
    39    23    19   ar
    40     1    33    1
    41     3    34    1
    42     7    35    1
    43    11    36    1
    44    13    37    1
    45    14    38    1
    46    15    39    1
    47    20    40    1
    48    22    41    1
    49    24    42    1
    50    25    43    1
    51    28    44    1
    52    29    45    1
    53    30    46    1
