@<TRIPOS>MOLECULE
*****
 43 49 0 0 0
SMALL
GASTEIGER

@<TRIPOS>ATOM
      1 C           7.8610    1.0000    1.2955 C.ar    1  UNL1        0.0653
      2 N           7.2367    2.1231    1.5685 N.ar    1  UNL1       -0.2551
      3 C           5.9007    1.9845    1.2374 C.ar    1  UNL1        0.0430
      4 C           5.5206    0.7601    0.7117 C.ar    1  UNL1        0.0475
      5 S           6.9034   -0.2621    0.6477 S.2     1  UNL1       -0.0749
      6 C           4.2076    0.3319    0.2970 C.ar    1  UNL1        0.0554
      7 S           2.8114    0.8448    1.1724 S.2     1  UNL1       -0.0827
      8 C           1.7288   -0.0282    0.1681 C.ar    1  UNL1        0.0561
      9 C           0.3127    0.0008    0.4110 C.ar    1  UNL1        0.0561
     10 S          -0.7611    0.7009   -0.7352 S.2     1  UNL1       -0.0833
     11 C          -2.1554    0.3371    0.2045 C.ar    1  UNL1        0.0480
     12 C          -3.4668    0.7178   -0.2869 C.ar    1  UNL1       -0.0010
     13 C          -4.2348    1.7648    0.2778 C.ar    1  UNL1       -0.0528
     14 C          -5.5291    2.1502   -0.1988 C.ar    1  UNL1       -0.0606
     15 C          -6.1895    1.5265   -1.2795 C.ar    1  UNL1       -0.0535
     16 C          -5.4357    0.4849   -1.8218 C.ar    1  UNL1       -0.0103
     17 C          -5.8842   -0.2768   -2.8722 C.ar    1  UNL1       -0.0166
     18 S          -4.7409   -1.4877   -3.2955 S.2     1  UNL1       -0.1039
     19 C          -3.6451   -0.9903   -2.0657 C.ar    1  UNL1       -0.0160
     20 C          -4.1282    0.0845   -1.3544 C.ar    1  UNL1       -0.0026
     21 C          -1.8023   -0.2680    1.3899 C.ar    1  UNL1        0.1045
     22 N          -2.7041   -0.6424    2.3445 N.ar    1  UNL1       -0.2508
     23 C          -2.0817   -1.2318    3.4000 C.ar    1  UNL1        0.0464
     24 C          -0.7017   -1.4332    3.5115 C.ar    1  UNL1        0.0464
     25 N           0.2210   -1.0681    2.5816 N.ar    1  UNL1       -0.2507
     26 C          -0.3755   -0.4711    1.5066 C.ar    1  UNL1        0.1051
     27 C           2.4082   -0.6909   -0.8282 C.ar    1  UNL1        0.1051
     28 N           1.7964   -1.4605   -1.7776 N.ar    1  UNL1       -0.2507
     29 C           2.7029   -1.9868   -2.6419 C.ar    1  UNL1        0.0464
     30 C           4.0836   -1.7792   -2.5823 C.ar    1  UNL1        0.0464
     31 N           4.7212   -1.0231   -1.6504 N.ar    1  UNL1       -0.2507
     32 C           3.8393   -0.4813   -0.7574 C.ar    1  UNL1        0.1051
     33 H           8.9211    0.8719    1.4703 H       1  UNL1        0.0907
     34 H           5.2391    2.8277    1.3991 H       1  UNL1        0.0841
     35 H          -3.8249    2.3134    1.1269 H       1  UNL1        0.0624
     36 H          -6.0340    2.9730    0.3087 H       1  UNL1        0.0618
     37 H          -7.1696    1.8323   -1.6209 H       1  UNL1        0.0624
     38 H          -6.8156   -0.2018   -3.4162 H       1  UNL1        0.0699
     39 H          -2.7127   -1.5247   -1.9468 H       1  UNL1        0.0700
     40 H          -2.7457   -1.5572    4.1961 H       1  UNL1        0.0845
     41 H          -0.2916   -1.9154    4.3947 H       1  UNL1        0.0845
     42 H           2.2785   -2.6100   -3.4243 H       1  UNL1        0.0845
     43 H           4.7360   -2.2397   -3.3191 H       1  UNL1        0.0845
@<TRIPOS>BOND
     1     1     2   ar
     2     2     3   ar
     3     3     4   ar
     4     4     5   ar
     5     4     6    1
     6     6     7   ar
     7     7     8   ar
     8     8     9    1
     9     9    10   ar
    10    10    11   ar
    11    11    12    1
    12    12    13   ar
    13    13    14   ar
    14    14    15   ar
    15    15    16   ar
    16    16    17   ar
    17    17    18   ar
    18    18    19   ar
    19    19    20   ar
    20    11    21   ar
    21    21    22   ar
    22    22    23   ar
    23    23    24   ar
    24    24    25   ar
    25    25    26   ar
    26     8    27   ar
    27    27    28   ar
    28    28    29   ar
    29    29    30   ar
    30    30    31   ar
    31    31    32   ar
    32     5     1   ar
    33    32     6   ar
    34    26     9   ar
    35    32    27   ar
    36    20    12   ar
    37    26    21   ar
    38    20    16   ar
    39     1    33    1
    40     3    34    1
    41    13    35    1
    42    14    36    1
    43    15    37    1
    44    17    38    1
    45    19    39    1
    46    23    40    1
    47    24    41    1
    48    29    42    1
    49    30    43    1
