@<TRIPOS>MOLECULE
*****
 48 54 0 0 0
SMALL
GASTEIGER

@<TRIPOS>ATOM
      1 C           0.7468   -2.2018   -0.1615 C.ar    1  UNL1        0.1000
      2 O           1.8957   -2.9291   -0.3031 O.2     1  UNL1       -0.4698
      3 C           2.9479   -2.0722   -0.1455 C.ar    1  UNL1        0.1000
      4 C           2.4810   -0.8043    0.0912 C.ar    1  UNL1        0.0282
      5 C           3.2275    0.3626    0.2773 C.ar    1  UNL1       -0.0065
      6 C           2.3659    1.4674    0.4870 C.ar    1  UNL1       -0.0527
      7 C           0.9278    1.3823    0.5009 C.ar    1  UNL1       -0.0513
      8 C           0.1781    0.1838    0.3261 C.ar    1  UNL1        0.0111
      9 C          -1.2772    0.1214    0.3590 C.ar    1  UNL1        0.0717
     10 C          -1.9813   -0.8395    1.0787 C.ar    1  UNL1       -0.0351
     11 C          -3.3780   -0.8175    1.0664 C.ar    1  UNL1       -0.0505
     12 C          -4.0659    0.1599    0.3419 C.ar    1  UNL1        0.0024
     13 C          -3.2710    1.0850   -0.3326 C.ar    1  UNL1        0.0360
     14 N          -1.9147    1.0974   -0.3309 N.ar    1  UNL1       -0.2544
     15 C          -5.5280    0.2298    0.3065 C.ar    1  UNL1        0.0117
     16 C          -6.2486    1.4233    0.5711 C.ar    1  UNL1       -0.0518
     17 C          -7.6606    1.5224    0.5395 C.ar    1  UNL1       -0.0590
     18 C          -8.4958    0.4369    0.2376 C.ar    1  UNL1       -0.0335
     19 C          -7.8476   -0.7889   -0.0402 C.ar    1  UNL1        0.1005
     20 N          -8.4645   -1.9390   -0.3514 N.ar    1  UNL1       -0.1908
     21 S          -7.2695   -3.0627   -0.5952 S.2     1  UNL1        0.1165
     22 N          -5.9177   -2.1476   -0.3068 N.ar    1  UNL1       -0.1902
     23 C          -6.3385   -0.9048   -0.0075 C.ar    1  UNL1        0.1076
     24 C           1.0508   -0.8911    0.1115 C.ar    1  UNL1        0.0296
     25 C           4.6698    0.4362    0.2620 C.ar    1  UNL1       -0.0090
     26 C           5.4578    0.6216    1.4278 C.ar    1  UNL1       -0.0534
     27 C           6.8890    0.6943    1.4331 C.ar    1  UNL1       -0.0606
     28 C           7.6864    0.5951    0.2740 C.ar    1  UNL1       -0.0535
     29 C           6.9129    0.4232   -0.8735 C.ar    1  UNL1       -0.0103
     30 C           7.4689    0.3107   -2.1237 C.ar    1  UNL1       -0.0166
     31 S           6.2584    0.1228   -3.3288 S.2     1  UNL1       -0.1039
     32 C           4.9880    0.1956   -2.1715 C.ar    1  UNL1       -0.0160
     33 C           5.4710    0.3471   -0.8915 C.ar    1  UNL1       -0.0032
     34 H          -0.1672   -2.7647   -0.2882 H       1  UNL1        0.1036
     35 H           3.9286   -2.5168   -0.2434 H       1  UNL1        0.1036
     36 H           2.8102    2.4531    0.6365 H       1  UNL1        0.0624
     37 H           0.3737    2.3107    0.6591 H       1  UNL1        0.0624
     38 H          -1.4638   -1.5940    1.6626 H       1  UNL1        0.0639
     39 H          -3.9208   -1.5711    1.6333 H       1  UNL1        0.0625
     40 H          -3.7160    1.8784   -0.9288 H       1  UNL1        0.0836
     41 H          -5.6912    2.3263    0.8298 H       1  UNL1        0.0624
     42 H          -8.1196    2.4863    0.7626 H       1  UNL1        0.0618
     43 H          -9.5755    0.5247    0.2162 H       1  UNL1        0.0640
     44 H           4.9479    0.7081    2.3892 H       1  UNL1        0.0624
     45 H           7.3882    0.8343    2.3927 H       1  UNL1        0.0618
     46 H           8.7664    0.6533    0.2984 H       1  UNL1        0.0624
     47 H           8.5121    0.3302   -2.4074 H       1  UNL1        0.0699
     48 H           3.9626    0.1208   -2.5079 H       1  UNL1        0.0700
@<TRIPOS>BOND
     1     1     2   ar
     2     2     3   ar
     3     3     4   ar
     4     4     5   ar
     5     5     6   ar
     6     6     7   ar
     7     7     8   ar
     8     8     9    1
     9     9    10   ar
    10    10    11   ar
    11    11    12   ar
    12    12    13   ar
    13    13    14   ar
    14    12    15    1
    15    15    16   ar
    16    16    17   ar
    17    17    18   ar
    18    18    19   ar
    19    19    20   ar
    20    20    21   ar
    21    21    22   ar
    22    22    23   ar
    23     8    24   ar
    24     5    25    1
    25    25    26   ar
    26    26    27   ar
    27    27    28   ar
    28    28    29   ar
    29    29    30   ar
    30    30    31   ar
    31    31    32   ar
    32    32    33   ar
    33    24     1   ar
    34    33    25   ar
    35    24     4   ar
    36    33    29   ar
    37    14     9   ar
    38    23    15   ar
    39    23    19   ar
    40     1    34    1
    41     3    35    1
    42     6    36    1
    43     7    37    1
    44    10    38    1
    45    11    39    1
    46    13    40    1
    47    16    41    1
    48    17    42    1
    49    18    43    1
    50    26    44    1
    51    27    45    1
    52    28    46    1
    53    30    47    1
    54    32    48    1
