@<TRIPOS>MOLECULE
*****
 44 50 0 0 0
SMALL
GASTEIGER

@<TRIPOS>ATOM
      1 SI         -5.8085    2.2025    2.3553 Si      1  UNL1        0.0000
      2 C          -6.6523    1.0015    1.2037 C.2     1  UNL1        0.0000
      3 C          -5.7492    0.2725    0.5182 C.ar    1  UNL1        0.0000
      4 C          -6.1090   -0.7107   -0.4730 C.ar    1  UNL1        0.0000
      5 C          -5.1474   -1.3618   -1.1421 C.ar    1  UNL1        0.0000
      6 C          -3.7098   -1.1013   -0.8997 C.ar    1  UNL1        0.0000
      7 C          -2.7924   -1.7841   -1.6918 C.ar    1  UNL1        0.0000
      8 C          -1.4298   -1.5897   -1.4985 C.ar    1  UNL1        0.0000
      9 C          -0.9346   -0.7446   -0.4816 C.ar    1  UNL1        0.0000
     10 C           0.4742   -0.5585   -0.2558 C.ar    1  UNL1        0.0000
     11 C           1.5172   -1.0714   -1.0460 C.ar    1  UNL1        0.0000
     12 N           2.8453   -0.8916   -0.8280 N.ar    1  UNL1        0.0000
     13 C           3.2084   -0.2029    0.2743 C.ar    1  UNL1        0.0000
     14 C           2.2689    0.3625    1.1210 C.ar    1  UNL1        0.0000
     15 C           0.9028    0.2033    0.8348 C.ar    1  UNL1        0.0000
     16 C          -0.0763    0.8014    1.6070 C.ar    1  UNL1        0.0000
     17 N          -1.3994    0.6975    1.3705 N.ar    1  UNL1        0.0000
     18 C          -1.8587   -0.0626    0.3543 C.ar    1  UNL1        0.0000
     19 C          -3.2484   -0.2037    0.1077 C.ar    1  UNL1        0.0000
     20 C          -4.3253    0.5494    0.8374 C.ar    1  UNL1        0.0000
     21 C          -4.1753    1.5284    1.7579 C.2     1  UNL1        0.0000
     22 C           4.6482   -0.0518    0.4664 C.ar    1  UNL1        0.0000
     23 S           5.4131    0.1844    2.0109 S.2     1  UNL1        0.0000
     24 C           7.0063    0.3359    1.3290 C.ar    1  UNL1        0.0000
     25 C           6.8953    0.1649   -0.0025 C.ar    1  UNL1        0.0000
     26 C           7.6689    0.2008   -1.1939 C.ar    1  UNL1        0.0000
     27 C           6.7789   -0.0017   -2.2715 C.ar    1  UNL1        0.0000
     28 N           5.4717   -0.1889   -1.8257 N.ar    1  UNL1        0.0000
     29 C           5.6212   -0.0549   -0.4743 C.ar    1  UNL1        0.0000
     30 H          -6.0269    3.6069    1.9350 H       1  UNL1        0.0000
     31 H          -6.0783    1.9148    3.7921 H       1  UNL1        0.0000
     32 H          -7.7267    0.9596    1.1230 H       1  UNL1        0.0000
     33 H          -7.1565   -0.9112   -0.6651 H       1  UNL1        0.0000
     34 H          -5.4183   -2.1090   -1.8824 H       1  UNL1        0.0000
     35 H          -3.1254   -2.4690   -2.4705 H       1  UNL1        0.0000
     36 H          -0.7598   -2.1425   -2.1504 H       1  UNL1        0.0000
     37 H           1.3175   -1.6628   -1.9350 H       1  UNL1        0.0000
     38 H           2.5802    0.9445    1.9856 H       1  UNL1        0.0000
     39 H           0.1737    1.4245    2.4659 H       1  UNL1        0.0000
     40 H          -3.2582    1.9435    2.1463 H       1  UNL1        0.0000
     41 H           7.8698    0.5417    1.9424 H       1  UNL1        0.0000
     42 H           8.7304    0.3873   -1.2909 H       1  UNL1        0.0000
     43 H           6.9773   -0.0013   -3.3380 H       1  UNL1        0.0000
     44 H           4.5972   -0.3519   -2.3166 H       1  UNL1        0.0000
@<TRIPOS>BOND
     1     1     2    1
     2     2     3    2
     3     3     4   ar
     4     4     5   ar
     5     5     6   ar
     6     6     7   ar
     7     7     8   ar
     8     8     9   ar
     9     9    10   ar
    10    10    11   ar
    11    11    12   ar
    12    12    13   ar
    13    13    14   ar
    14    14    15   ar
    15    15    16   ar
    16    16    17   ar
    17    17    18   ar
    18    18    19   ar
    19    19    20   ar
    20    20    21    2
    21    13    22    1
    22    22    23   ar
    23    23    24   ar
    24    24    25   ar
    25    25    26   ar
    26    26    27   ar
    27    27    28   ar
    28    28    29   ar
    29    21     1    1
    30    29    22   ar
    31    20     3   ar
    32    29    25   ar
    33    19     6   ar
    34    18     9   ar
    35    15    10   ar
    36     1    30    1
    37     1    31    1
    38     2    32    1
    39     4    33    1
    40     5    34    1
    41     7    35    1
    42     8    36    1
    43    11    37    1
    44    14    38    1
    45    16    39    1
    46    21    40    1
    47    24    41    1
    48    26    42    1
    49    27    43    1
    50    28    44    1
