@<TRIPOS>MOLECULE
*****
 45 51 0 0 0
SMALL
GASTEIGER

@<TRIPOS>ATOM
      1 C          -1.3234   -0.9256   -2.3926 C.ar    1  UNL1        0.1000
      2 O          -2.4834   -1.1617   -3.0739 O.2     1  UNL1       -0.4698
      3 C          -3.5183   -0.7887   -2.2648 C.ar    1  UNL1        0.1000
      4 C          -3.0319   -0.3033   -1.0761 C.ar    1  UNL1        0.0283
      5 C          -3.7565    0.1637    0.0271 C.ar    1  UNL1       -0.0036
      6 C          -2.8620    0.5175    1.0714 C.ar    1  UNL1       -0.0526
      7 C          -1.4260    0.4145    0.9928 C.ar    1  UNL1       -0.0513
      8 C          -0.7019   -0.0553   -0.1396 C.ar    1  UNL1        0.0111
      9 C           0.7518   -0.1668   -0.2204 C.ar    1  UNL1        0.0717
     10 C           1.5244   -0.5930    0.8578 C.ar    1  UNL1       -0.0351
     11 C           2.9135   -0.6618    0.7243 C.ar    1  UNL1       -0.0500
     12 C           3.5234   -0.3047   -0.4791 C.ar    1  UNL1        0.0090
     13 C           2.6725    0.1154   -1.4973 C.ar    1  UNL1        0.0365
     14 N           1.3201    0.1871   -1.3977 N.ar    1  UNL1       -0.2543
     15 C           4.9816   -0.3644   -0.6411 C.ar    1  UNL1        0.0482
     16 S           5.6596   -1.0046   -2.0997 S.2     1  UNL1       -0.0923
     17 C           7.2716   -0.7784   -1.5665 C.ar    1  UNL1        0.0038
     18 C           7.3079   -0.2374   -0.3090 C.ar    1  UNL1        0.0968
     19 N           8.4714    0.0396    0.3419 N.ar    1  UNL1       -0.2514
     20 C           8.2205    0.5725    1.5688 C.ar    1  UNL1        0.0464
     21 C           6.9466    0.8055    2.1006 C.ar    1  UNL1        0.0464
     22 N           5.7704    0.5336    1.4709 N.ar    1  UNL1       -0.2508
     23 C           5.9895   -0.0010    0.2324 C.ar    1  UNL1        0.1039
     24 C          -1.6030   -0.4027   -1.1547 C.ar    1  UNL1        0.0296
     25 C          -5.1991    0.2824    0.0926 C.ar    1  UNL1        0.0291
     26 C          -5.9848    0.9768   -0.8402 C.ar    1  UNL1        0.0375
     27 N          -7.3500    1.1369   -0.8520 N.ar    1  UNL1       -0.2604
     28 C          -8.1212    0.5938    0.1327 C.ar    1  UNL1        0.0557
     29 C          -7.4770   -0.1275    1.1559 C.ar    1  UNL1        0.1185
     30 N          -8.0668   -0.7252    2.2038 N.ar    1  UNL1       -0.1892
     31 S          -6.8511   -1.4303    3.0853 S.2     1  UNL1        0.1165
     32 N          -5.5270   -1.0012    2.1849 N.ar    1  UNL1       -0.1901
     33 C          -5.9767   -0.2854    1.1366 C.ar    1  UNL1        0.1105
     34 H          -0.4152   -1.1838   -2.9197 H       1  UNL1        0.1036
     35 H          -4.5026   -0.9425   -2.6841 H       1  UNL1        0.1036
     36 H          -3.2776    0.9015    2.0058 H       1  UNL1        0.0624
     37 H          -0.8658    0.7405    1.8713 H       1  UNL1        0.0624
     38 H           1.0636   -0.8838    1.7965 H       1  UNL1        0.0639
     39 H           3.5093   -0.9981    1.5700 H       1  UNL1        0.0625
     40 H           3.0562    0.4322   -2.4639 H       1  UNL1        0.0836
     41 H           8.1079   -1.0517   -2.1935 H       1  UNL1        0.0715
     42 H           9.1062    0.8222    2.1467 H       1  UNL1        0.0845
     43 H           6.8425    1.2375    3.0922 H       1  UNL1        0.0845
     44 H          -5.4984    1.4804   -1.6780 H       1  UNL1        0.0836
     45 H          -9.1909    0.7462    0.0814 H       1  UNL1        0.0852
@<TRIPOS>BOND
     1     1     2   ar
     2     2     3   ar
     3     3     4   ar
     4     4     5   ar
     5     5     6   ar
     6     6     7   ar
     7     7     8   ar
     8     8     9    1
     9     9    10   ar
    10    10    11   ar
    11    11    12   ar
    12    12    13   ar
    13    13    14   ar
    14    12    15    1
    15    15    16   ar
    16    16    17   ar
    17    17    18   ar
    18    18    19   ar
    19    19    20   ar
    20    20    21   ar
    21    21    22   ar
    22    22    23   ar
    23     8    24   ar
    24     5    25    1
    25    25    26   ar
    26    26    27   ar
    27    27    28   ar
    28    28    29   ar
    29    29    30   ar
    30    30    31   ar
    31    31    32   ar
    32    32    33   ar
    33    24     1   ar
    34    33    25   ar
    35    24     4   ar
    36    33    29   ar
    37    14     9   ar
    38    23    15   ar
    39    23    18   ar
    40     1    34    1
    41     3    35    1
    42     6    36    1
    43     7    37    1
    44    10    38    1
    45    11    39    1
    46    13    40    1
    47    17    41    1
    48    20    42    1
    49    21    43    1
    50    26    44    1
    51    28    45    1
