@<TRIPOS>MOLECULE
*****
 41 48 0 0 0
SMALL
GASTEIGER

@<TRIPOS>ATOM
      1 C          -5.9993   -1.7834   -0.5412 C.ar    1  UNL1        0.0994
      2 O          -4.9540   -2.3128   -1.2478 O.2     1  UNL1       -0.4698
      3 C          -3.8441   -1.5615   -0.9687 C.ar    1  UNL1        0.1000
      4 C          -4.1647   -0.5670   -0.0790 C.ar    1  UNL1        0.0276
      5 C          -3.3390    0.4237    0.4648 C.ar    1  UNL1       -0.0050
      6 C          -4.1054    1.2716    1.3127 C.ar    1  UNL1       -0.0533
      7 C          -5.5165    1.1186    1.5714 C.ar    1  UNL1       -0.0605
      8 C          -6.3228    0.1025    1.0115 C.ar    1  UNL1       -0.0510
      9 C          -5.5606   -0.7080    0.1832 C.ar    1  UNL1        0.0204
     10 C          -1.9135    0.5572    0.2130 C.ar    1  UNL1        0.0129
     11 C          -0.9954   -0.4992    0.4924 C.ar    1  UNL1       -0.0278
     12 C           0.3731   -0.3230    0.2341 C.ar    1  UNL1        0.0517
     13 N           1.4730   -1.1468    0.3984 N.ar    1  UNL1       -0.3523
     14 C           2.5940   -0.4609   -0.0200 C.ar    1  UNL1        0.0753
     15 C           2.2372    0.7904   -0.4492 C.ar    1  UNL1        0.0753
     16 N           3.3585    1.4769   -0.8668 N.ar    1  UNL1       -0.3523
     17 C           4.4597    0.6538   -0.7048 C.ar    1  UNL1        0.0511
     18 C           5.8289    0.8332   -0.9632 C.ar    1  UNL1       -0.0356
     19 C           6.7257   -0.2266   -0.6822 C.ar    1  UNL1       -0.0315
     20 C           6.1976   -1.4348   -0.1468 C.ar    1  UNL1        0.1007
     21 N           6.8947   -2.5409    0.1797 N.ar    1  UNL1       -0.1908
     22 S           5.7799   -3.6559    0.7604 S.2     1  UNL1        0.1165
     23 N           4.3488   -2.7809    0.6244 N.ar    1  UNL1       -0.1900
     24 C           4.7823   -1.6348    0.1258 C.ar    1  UNL1        0.1110
     25 C           3.9697   -0.5239   -0.1865 C.ar    1  UNL1        0.0517
     26 C           0.8611    0.8534   -0.2824 C.ar    1  UNL1        0.0518
     27 C           0.0496    1.9644   -0.5890 C.ar    1  UNL1        0.1116
     28 N           0.4997    3.1062   -1.0838 N.ar    1  UNL1       -0.1900
     29 S          -0.9153    3.9985   -1.2290 S.2     1  UNL1        0.1165
     30 N          -2.0417    2.9022   -0.6510 N.ar    1  UNL1       -0.1901
     31 C          -1.3718    1.7759   -0.3188 C.ar    1  UNL1        0.1083
     32 H          -6.9503   -2.2787   -0.6749 H       1  UNL1        0.1035
     33 H          -2.9421   -1.8667   -1.4798 H       1  UNL1        0.1036
     34 H          -3.5989    2.1023    1.8086 H       1  UNL1        0.0624
     35 H          -5.9872    1.8395    2.2417 H       1  UNL1        0.0618
     36 H          -7.3799   -0.0010    1.2084 H       1  UNL1        0.0625
     37 H          -1.3556   -1.4356    0.9144 H       1  UNL1        0.0645
     38 H           1.5061   -2.0941    0.7579 H       1  UNL1        0.1660
     39 H           3.3259    2.4246   -1.2247 H       1  UNL1        0.1660
     40 H           6.2029    1.7681   -1.3727 H       1  UNL1        0.0639
     41 H           7.7896   -0.1263   -0.8681 H       1  UNL1        0.0640
@<TRIPOS>BOND
     1     1     2   ar
     2     2     3   ar
     3     3     4   ar
     4     4     5   ar
     5     5     6   ar
     6     6     7   ar
     7     7     8   ar
     8     8     9   ar
     9     5    10    1
    10    10    11   ar
    11    11    12   ar
    12    12    13   ar
    13    13    14   ar
    14    14    15   ar
    15    15    16   ar
    16    16    17   ar
    17    17    18   ar
    18    18    19   ar
    19    19    20   ar
    20    20    21   ar
    21    21    22   ar
    22    22    23   ar
    23    23    24   ar
    24    24    25   ar
    25    15    26   ar
    26    26    27   ar
    27    27    28   ar
    28    28    29   ar
    29    29    30   ar
    30    30    31   ar
    31     9     1   ar
    32    31    10   ar
    33     9     4   ar
    34    26    12   ar
    35    31    27   ar
    36    25    14   ar
    37    25    17   ar
    38    24    20   ar
    39     1    32    1
    40     3    33    1
    41     6    34    1
    42     7    35    1
    43     8    36    1
    44    11    37    1
    45    13    38    1
    46    16    39    1
    47    18    40    1
    48    19    41    1
