@<TRIPOS>MOLECULE
*****
 42 49 0 0 0
SMALL
GASTEIGER

@<TRIPOS>ATOM
      1 C          -5.9379    0.6593   -1.9041 C.ar    1  UNL1        0.0994
      2 O          -4.9180    0.3903   -2.7770 O.2     1  UNL1       -0.4698
      3 C          -3.7899    0.1576   -2.0363 C.ar    1  UNL1        0.1000
      4 C          -4.0815    0.2713   -0.7009 C.ar    1  UNL1        0.0276
      5 C          -3.2284    0.1151    0.3947 C.ar    1  UNL1       -0.0065
      6 C          -3.9405    0.3413    1.6027 C.ar    1  UNL1       -0.0533
      7 C          -5.3433    0.6708    1.6729 C.ar    1  UNL1       -0.0605
      8 C          -6.1860    0.8164    0.5462 C.ar    1  UNL1       -0.0510
      9 C          -5.4666    0.5991   -0.6204 C.ar    1  UNL1        0.0204
     10 C          -1.8203   -0.2078    0.3105 C.ar    1  UNL1       -0.0070
     11 C          -0.8101    0.7734    0.5172 C.ar    1  UNL1       -0.0294
     12 C           0.5553    0.4272    0.4228 C.ar    1  UNL1        0.0492
     13 N           1.7076    1.1655    0.5667 N.ar    1  UNL1       -0.3531
     14 C           2.7995    0.3364    0.3716 C.ar    1  UNL1        0.0646
     15 C           2.3682   -0.9425    0.0993 C.ar    1  UNL1        0.0464
     16 S           3.6954   -2.0439   -0.1582 S.2     1  UNL1       -0.0860
     17 C           4.8560   -0.7775    0.1009 C.ar    1  UNL1        0.0241
     18 C           6.2674   -0.8335    0.0689 C.ar    1  UNL1       -0.0452
     19 C           7.0344    0.3274    0.3107 C.ar    1  UNL1       -0.0324
     20 C           6.3347    1.5287    0.5819 C.ar    1  UNL1        0.1006
     21 N           6.8850    2.7313    0.8359 N.ar    1  UNL1       -0.1908
     22 S           5.6160    3.7994    1.0856 S.2     1  UNL1        0.1165
     23 N           4.2980    2.7762    0.8822 N.ar    1  UNL1       -0.1901
     24 C           4.8837    1.6170    0.6214 C.ar    1  UNL1        0.1100
     25 C           4.1946    0.3974    0.3657 C.ar    1  UNL1        0.0413
     26 C           0.9733   -0.8528    0.1376 C.ar    1  UNL1        0.0223
     27 C           0.0387   -1.8962   -0.0745 C.ar    1  UNL1       -0.0001
     28 C           0.2871   -3.2061   -0.3572 C.ar    1  UNL1       -0.0159
     29 S          -1.2148   -4.0368   -0.5059 S.2     1  UNL1       -0.1038
     30 C          -2.1289   -2.6066   -0.1831 C.ar    1  UNL1       -0.0160
     31 C          -1.3264   -1.5033    0.0277 C.ar    1  UNL1       -0.0024
     32 H          -6.8964    0.8658   -2.3583 H       1  UNL1        0.1035
     33 H          -2.8987   -0.0684   -2.6051 H       1  UNL1        0.1036
     34 H          -3.3980    0.2557    2.5462 H       1  UNL1        0.0624
     35 H          -5.7786    0.8165    2.6628 H       1  UNL1        0.0618
     36 H          -7.2355    1.0647    0.6104 H       1  UNL1        0.0625
     37 H          -1.0955    1.7996    0.7406 H       1  UNL1        0.0644
     38 H           1.8012    2.1530    0.7789 H       1  UNL1        0.1659
     39 H           6.7701   -1.7752   -0.1431 H       1  UNL1        0.0629
     40 H           8.1184    0.3048    0.2905 H       1  UNL1        0.0640
     41 H           1.2189   -3.7364   -0.4844 H       1  UNL1        0.0700
     42 H          -3.2084   -2.6741   -0.1711 H       1  UNL1        0.0700
@<TRIPOS>BOND
     1     1     2   ar
     2     2     3   ar
     3     3     4   ar
     4     4     5   ar
     5     5     6   ar
     6     6     7   ar
     7     7     8   ar
     8     8     9   ar
     9     5    10    1
    10    10    11   ar
    11    11    12   ar
    12    12    13   ar
    13    13    14   ar
    14    14    15   ar
    15    15    16   ar
    16    16    17   ar
    17    17    18   ar
    18    18    19   ar
    19    19    20   ar
    20    20    21   ar
    21    21    22   ar
    22    22    23   ar
    23    23    24   ar
    24    24    25   ar
    25    15    26   ar
    26    26    27   ar
    27    27    28   ar
    28    28    29   ar
    29    29    30   ar
    30    30    31   ar
    31     9     1   ar
    32    31    10   ar
    33     9     4   ar
    34    26    12   ar
    35    31    27   ar
    36    25    14   ar
    37    25    17   ar
    38    24    20   ar
    39     1    32    1
    40     3    33    1
    41     6    34    1
    42     7    35    1
    43     8    36    1
    44    11    37    1
    45    13    38    1
    46    18    39    1
    47    19    40    1
    48    28    41    1
    49    30    42    1
