@<TRIPOS>MOLECULE
*****
 40 46 0 0 0
SMALL
GASTEIGER

@<TRIPOS>ATOM
      1 C           6.7278    0.9936    1.3731 C.ar    1  UNL1        0.0994
      2 O           5.7679    1.8324    1.8705 O.2     1  UNL1       -0.4698
      3 C           4.5652    1.4453    1.3424 C.ar    1  UNL1        0.1000
      4 C           4.7476    0.3745    0.5040 C.ar    1  UNL1        0.0280
      5 C           3.8030   -0.3440   -0.2342 C.ar    1  UNL1       -0.0005
      6 C           4.4255   -1.4026   -0.9456 C.ar    1  UNL1       -0.0528
      7 C           5.8391   -1.6852   -0.9044 C.ar    1  UNL1       -0.0605
      8 C           6.7792   -0.9447   -0.1504 C.ar    1  UNL1       -0.0510
      9 C           6.1445    0.0809    0.5366 C.ar    1  UNL1        0.0205
     10 C           2.3873   -0.0259   -0.2693 C.ar    1  UNL1        0.0227
     11 C           1.7676    1.1858   -0.5354 C.ar    1  UNL1       -0.0208
     12 C           0.3484    1.1055   -0.4650 C.ar    1  UNL1        0.0806
     13 N          -0.5464    2.1080   -0.6683 N.ar    1  UNL1       -0.2537
     14 C          -1.8814    1.8624   -0.5616 C.ar    1  UNL1        0.0381
     15 C          -2.4243    0.6115   -0.2470 C.ar    1  UNL1        0.0273
     16 C          -1.5474   -0.4336   -0.0331 C.ar    1  UNL1        0.0649
     17 N          -2.2168   -1.5877    0.2645 N.ar    1  UNL1       -0.3532
     18 C          -3.5764   -1.3382    0.2555 C.ar    1  UNL1        0.0483
     19 C          -4.6923   -2.1858    0.4969 C.ar    1  UNL1       -0.0371
     20 C          -6.0129   -1.6850    0.4274 C.ar    1  UNL1       -0.0490
     21 C          -6.0514   -0.3331    0.1095 C.ar    1  UNL1        0.0206
     22 C          -7.1801    0.4376   -0.0308 C.ar    1  UNL1        0.0994
     23 O          -6.8338    1.7302   -0.3488 O.2     1  UNL1       -0.4698
     24 C          -5.4614    1.7888   -0.4132 C.ar    1  UNL1        0.1000
     25 C          -4.9877    0.5458   -0.1373 C.ar    1  UNL1        0.0296
     26 C          -3.6736    0.0149   -0.0604 C.ar    1  UNL1        0.0196
     27 C          -0.0401   -0.1743   -0.1503 C.ar    1  UNL1        0.0620
     28 S           1.2265   -1.2583    0.0550 S.2     1  UNL1       -0.0846
     29 H           7.7351    1.1841    1.7150 H       1  UNL1        0.1035
     30 H           3.7130    2.0253    1.6676 H       1  UNL1        0.1036
     31 H           3.8086   -2.0446   -1.5763 H       1  UNL1        0.0624
     32 H           6.2038   -2.5256   -1.4973 H       1  UNL1        0.0618
     33 H           7.8363   -1.1675   -0.1263 H       1  UNL1        0.0625
     34 H           2.3017    2.0957   -0.7768 H       1  UNL1        0.0650
     35 H          -2.5135    2.7263   -0.7419 H       1  UNL1        0.0836
     36 H          -1.7866   -2.4809    0.4610 H       1  UNL1        0.1659
     37 H          -4.5345   -3.2348    0.7391 H       1  UNL1        0.0638
     38 H          -6.8816   -2.3049    0.6060 H       1  UNL1        0.0625
     39 H          -8.2421    0.2543    0.0517 H       1  UNL1        0.1035
     40 H          -5.0439    2.7540   -0.6565 H       1  UNL1        0.1036
@<TRIPOS>BOND
     1     1     2   ar
     2     2     3   ar
     3     3     4   ar
     4     4     5   ar
     5     5     6   ar
     6     6     7   ar
     7     7     8   ar
     8     8     9   ar
     9     5    10    1
    10    10    11   ar
    11    11    12   ar
    12    12    13   ar
    13    13    14   ar
    14    14    15   ar
    15    15    16   ar
    16    16    17   ar
    17    17    18   ar
    18    18    19   ar
    19    19    20   ar
    20    20    21   ar
    21    21    22   ar
    22    22    23   ar
    23    23    24   ar
    24    24    25   ar
    25    25    26   ar
    26    16    27   ar
    27    27    28   ar
    28     9     1   ar
    29    28    10   ar
    30     9     4   ar
    31    27    12   ar
    32    26    15   ar
    33    26    18   ar
    34    25    21   ar
    35     1    29    1
    36     3    30    1
    37     6    31    1
    38     7    32    1
    39     8    33    1
    40    11    34    1
    41    14    35    1
    42    17    36    1
    43    19    37    1
    44    20    38    1
    45    22    39    1
    46    24    40    1
