@<TRIPOS>MOLECULE
*****
 35 40 0 0 0
SMALL
GASTEIGER

@<TRIPOS>ATOM
      1 C          -6.0433    0.9014    0.5014 C.ar    1  UNL1        0.0994
      2 O          -5.3898    2.0013    0.0200 O.2     1  UNL1       -0.4698
      3 C          -4.0782    1.6553   -0.1668 C.ar    1  UNL1        0.1001
      4 C          -3.8851    0.3399    0.1737 C.ar    1  UNL1        0.0305
      5 C          -2.7165   -0.4288    0.1533 C.ar    1  UNL1        0.0280
      6 C          -2.9768   -1.7355    0.6485 C.ar    1  UNL1       -0.0504
      7 C          -4.2671   -2.1998    1.0924 C.ar    1  UNL1       -0.0604
      8 C          -5.4375   -1.4091    1.0954 C.ar    1  UNL1       -0.0510
      9 C          -5.1584   -0.1355    0.6203 C.ar    1  UNL1        0.0205
     10 C          -1.4235    0.0252   -0.3067 C.ar    1  UNL1        0.1386
     11 C          -0.9765    0.9894   -1.1974 C.ar    1  UNL1        0.0104
     12 C           0.4328    0.9218   -1.1978 C.ar    1  UNL1        0.1132
     13 N           1.3681    1.6300   -1.8762 N.ar    1  UNL1       -0.2509
     14 C           2.6881    1.3475   -1.6846 C.ar    1  UNL1        0.0399
     15 C           3.1624    0.3517   -0.8176 C.ar    1  UNL1        0.0512
     16 C           4.4265   -0.1644   -0.4162 C.ar    1  UNL1        0.0476
     17 C           5.7636    0.1004   -0.7149 C.ar    1  UNL1        0.0389
     18 N           6.7484   -0.6197   -0.1189 N.ar    1  UNL1       -0.2624
     19 C           6.4210   -1.5935    0.7650 C.ar    1  UNL1        0.0311
     20 C           5.1307   -1.9351    1.1299 C.ar    1  UNL1       -0.0006
     21 C           4.1566   -1.1782    0.5002 C.ar    1  UNL1        0.1394
     22 O           2.8117   -1.3139    0.6834 O.2     1  UNL1       -0.4509
     23 C           2.2322   -0.3882   -0.1139 C.ar    1  UNL1        0.1819
     24 C           0.7520   -0.0826   -0.3168 C.ar    1  UNL1        0.1964
     25 O          -0.3479   -0.6428    0.2291 O.2     1  UNL1       -0.4495
     26 H          -7.0963    1.0358    0.7040 H       1  UNL1        0.1035
     27 H          -3.4495    2.4555   -0.5286 H       1  UNL1        0.1036
     28 H          -2.1500   -2.4474    0.6948 H       1  UNL1        0.0625
     29 H          -4.3385   -3.2285    1.4489 H       1  UNL1        0.0618
     30 H          -6.3997   -1.7657    1.4339 H       1  UNL1        0.0625
     31 H          -1.5833    1.6545   -1.7921 H       1  UNL1        0.0677
     32 H           3.3712    1.9620   -2.2656 H       1  UNL1        0.0837
     33 H           6.0833    0.8661   -1.4126 H       1  UNL1        0.0837
     34 H           7.2706   -2.1196    1.1948 H       1  UNL1        0.0831
     35 H           4.8989   -2.7168    1.8380 H       1  UNL1        0.0670
@<TRIPOS>BOND
     1     1     2   ar
     2     2     3   ar
     3     3     4   ar
     4     4     5   ar
     5     5     6   ar
     6     6     7   ar
     7     7     8   ar
     8     8     9   ar
     9     5    10    1
    10    10    11   ar
    11    11    12   ar
    12    12    13   ar
    13    13    14   ar
    14    14    15   ar
    15    15    16   ar
    16    16    17   ar
    17    17    18   ar
    18    18    19   ar
    19    19    20   ar
    20    20    21   ar
    21    21    22   ar
    22    22    23   ar
    23    23    24   ar
    24    24    25   ar
    25     9     1   ar
    26    25    10   ar
    27     9     4   ar
    28    24    12   ar
    29    23    15   ar
    30    21    16   ar
    31     1    26    1
    32     3    27    1
    33     6    28    1
    34     7    29    1
    35     8    30    1
    36    11    31    1
    37    14    32    1
    38    17    33    1
    39    19    34    1
    40    20    35    1
