@<TRIPOS>MOLECULE
*****
 31 35 0 0 0
SMALL
GASTEIGER

@<TRIPOS>ATOM
      1 C           4.2838   -0.7793    2.2928 C.ar    1  UNL1        0.0994
      2 O           3.2157   -0.2941    2.9970 O.2     1  UNL1       -0.4698
      3 C           2.2032   -0.0609    2.1051 C.ar    1  UNL1        0.1000
      4 C           2.6046   -0.4122    0.8410 C.ar    1  UNL1        0.0289
      5 C           1.9059   -0.3355   -0.3669 C.ar    1  UNL1        0.0091
      6 C           2.7266   -0.7428   -1.4481 C.ar    1  UNL1       -0.0519
      7 C           4.0891   -1.1926   -1.3052 C.ar    1  UNL1       -0.0604
      8 C           4.7769   -1.2758   -0.0718 C.ar    1  UNL1       -0.0510
      9 C           3.9559   -0.8570    0.9663 C.ar    1  UNL1        0.0205
     10 C           0.5307    0.1050   -0.5060 C.ar    1  UNL1        0.0512
     11 C          -0.0211    0.9707   -1.4489 C.ar    1  UNL1        0.0067
     12 C          -1.3867    1.0119   -1.1270 C.ar    1  UNL1        0.1559
     13 O          -2.5134    1.6308   -1.5864 O.2     1  UNL1       -0.4516
     14 C          -3.5056    1.1768   -0.7603 C.ar    1  UNL1        0.1559
     15 C          -4.8524    1.5111   -0.8083 C.ar    1  UNL1       -0.0157
     16 C          -5.6481    0.8943    0.1633 C.ar    1  UNL1       -0.0401
     17 C          -5.0698    0.0167    1.0850 C.ar    1  UNL1        0.0286
     18 N          -3.7563   -0.3201    1.1449 N.ar    1  UNL1       -0.2497
     19 C          -3.0254    0.2951    0.1933 C.ar    1  UNL1        0.1327
     20 C          -1.6559    0.2123   -0.0727 C.ar    1  UNL1        0.1118
     21 N          -0.4825   -0.3681    0.3157 N.ar    1  UNL1       -0.3499
     22 H           5.1661   -0.9988    2.8769 H       1  UNL1        0.1035
     23 H           1.3013    0.3519    2.5339 H       1  UNL1        0.1036
     24 H           2.3069   -0.7306   -2.4550 H       1  UNL1        0.0624
     25 H           4.6208   -1.4874   -2.2113 H       1  UNL1        0.0618
     26 H           5.7998   -1.6108    0.0215 H       1  UNL1        0.0625
     27 H           0.4950    1.4959   -2.2395 H       1  UNL1        0.0676
     28 H          -5.2479    2.1976   -1.5449 H       1  UNL1        0.0655
     29 H          -6.7145    1.0956    0.2033 H       1  UNL1        0.0634
     30 H          -5.6902   -0.4624    1.8401 H       1  UNL1        0.0830
     31 H          -0.4123   -1.0373    1.0733 H       1  UNL1        0.1661
@<TRIPOS>BOND
     1     1     2   ar
     2     2     3   ar
     3     3     4   ar
     4     4     5   ar
     5     5     6   ar
     6     6     7   ar
     7     7     8   ar
     8     8     9   ar
     9     5    10    1
    10    10    11   ar
    11    11    12   ar
    12    12    13   ar
    13    13    14   ar
    14    14    15   ar
    15    15    16   ar
    16    16    17   ar
    17    17    18   ar
    18    18    19   ar
    19    19    20   ar
    20    20    21   ar
    21     9     1   ar
    22    21    10   ar
    23     9     4   ar
    24    20    12   ar
    25    19    14   ar
    26     1    22    1
    27     3    23    1
    28     6    24    1
    29     7    25    1
    30     8    26    1
    31    11    27    1
    32    15    28    1
    33    16    29    1
    34    17    30    1
    35    21    31    1
