@<TRIPOS>MOLECULE
*****
 49 55 0 0 0
SMALL
GASTEIGER

@<TRIPOS>ATOM
      1 C           7.6428    1.0079   -0.8256 C.ar    1  UNL1        0.0994
      2 O           6.8320    1.9009   -1.4716 O.2     1  UNL1       -0.4698
      3 C           5.5397    1.6137   -1.1231 C.ar    1  UNL1        0.1000
      4 C           5.5144    0.5369   -0.2728 C.ar    1  UNL1        0.0276
      5 C           4.4122   -0.0805    0.3289 C.ar    1  UNL1       -0.0057
      6 C           4.8551   -1.1367    1.1741 C.ar    1  UNL1       -0.0533
      7 C           6.2353   -1.5115    1.3646 C.ar    1  UNL1       -0.0605
      8 C           7.3280   -0.8716    0.7373 C.ar    1  UNL1       -0.0510
      9 C           6.8762    0.1588   -0.0742 C.ar    1  UNL1        0.0204
     10 C           3.0226    0.2974    0.1303 C.ar    1  UNL1        0.0009
     11 C           2.4267    0.3006   -1.1363 C.ar    1  UNL1       -0.0505
     12 C           1.0875    0.6614   -1.2823 C.ar    1  UNL1       -0.0346
     13 C           0.3667    1.0057   -0.1449 C.ar    1  UNL1        0.0782
     14 N           0.8999    1.0068    1.0977 N.ar    1  UNL1       -0.2538
     15 C           2.2052    0.6584    1.2017 C.ar    1  UNL1        0.0360
     16 C          -1.0363    1.3968   -0.2223 C.ar    1  UNL1        0.0458
     17 S          -1.3122    3.0808   -0.4719 S.2     1  UNL1       -0.0939
     18 C          -3.0005    2.8724   -0.5402 C.ar    1  UNL1       -0.0154
     19 C          -3.3692    1.5573   -0.3733 C.ar    1  UNL1       -0.0019
     20 C          -2.2283    0.6847   -0.1588 C.ar    1  UNL1        0.0067
     21 C          -2.3642   -0.7301    0.0561 C.ar    1  UNL1       -0.0084
     22 C          -1.3097   -1.6521    0.3110 C.ar    1  UNL1       -0.0534
     23 C          -1.5568   -3.0079    0.4898 C.ar    1  UNL1       -0.0611
     24 C          -2.8556   -3.4729    0.4247 C.ar    1  UNL1       -0.0611
     25 C          -3.9084   -2.5801    0.1916 C.ar    1  UNL1       -0.0534
     26 C          -3.7316   -1.1847    0.0042 C.ar    1  UNL1       -0.0095
     27 C          -4.8771   -0.2819   -0.2214 C.ar    1  UNL1       -0.0096
     28 C          -6.2233   -0.7328   -0.2644 C.ar    1  UNL1       -0.0534
     29 C          -7.3208    0.1156   -0.4724 C.ar    1  UNL1       -0.0611
     30 C          -7.1290    1.4746   -0.6499 C.ar    1  UNL1       -0.0611
     31 C          -5.8389    1.9855   -0.6207 C.ar    1  UNL1       -0.0534
     32 C          -4.7227    1.1285   -0.4109 C.ar    1  UNL1       -0.0091
     33 H           8.7018    1.1252   -1.0063 H       1  UNL1        0.1035
     34 H           4.7911    2.2611   -1.5579 H       1  UNL1        0.1036
     35 H           4.1062   -1.7202    1.7136 H       1  UNL1        0.0624
     36 H           6.4446   -2.3447    2.0375 H       1  UNL1        0.0618
     37 H           8.3587   -1.1582    0.8891 H       1  UNL1        0.0625
     38 H           2.9982    0.0138   -2.0166 H       1  UNL1        0.0625
     39 H           0.6199    0.6669   -2.2614 H       1  UNL1        0.0639
     40 H           2.5932    0.6853    2.2177 H       1  UNL1        0.0836
     41 H          -3.6173    3.7434   -0.7042 H       1  UNL1        0.0700
     42 H          -0.2797   -1.3309    0.3968 H       1  UNL1        0.0624
     43 H          -0.7360   -3.6919    0.6858 H       1  UNL1        0.0618
     44 H          -3.0639   -4.5307    0.5638 H       1  UNL1        0.0618
     45 H          -4.8980   -3.0268    0.1650 H       1  UNL1        0.0624
     46 H          -6.4647   -1.7834   -0.1317 H       1  UNL1        0.0624
     47 H          -8.3260   -0.2987   -0.4921 H       1  UNL1        0.0618
     48 H          -7.9776    2.1337   -0.8097 H       1  UNL1        0.0618
     49 H          -5.7102    3.0541   -0.7621 H       1  UNL1        0.0624
@<TRIPOS>BOND
     1     1     2   ar
     2     2     3   ar
     3     3     4   ar
     4     4     5   ar
     5     5     6   ar
     6     6     7   ar
     7     7     8   ar
     8     8     9   ar
     9     5    10    1
    10    10    11   ar
    11    11    12   ar
    12    12    13   ar
    13    13    14   ar
    14    14    15   ar
    15    13    16    1
    16    16    17   ar
    17    17    18   ar
    18    18    19   ar
    19    19    20   ar
    20    20    21   ar
    21    21    22   ar
    22    22    23   ar
    23    23    24   ar
    24    24    25   ar
    25    25    26   ar
    26    26    27   ar
    27    27    28   ar
    28    28    29   ar
    29    29    30   ar
    30    30    31   ar
    31    31    32   ar
    32     9     1   ar
    33    15    10   ar
    34    20    16   ar
    35    26    21   ar
    36    32    27   ar
    37     9     4   ar
    38    32    19   ar
    39     1    33    1
    40     3    34    1
    41     6    35    1
    42     7    36    1
    43     8    37    1
    44    11    38    1
    45    12    39    1
    46    15    40    1
    47    18    41    1
    48    22    42    1
    49    23    43    1
    50    24    44    1
    51    25    45    1
    52    28    46    1
    53    29    47    1
    54    30    48    1
    55    31    49    1
