@<TRIPOS>MOLECULE
*****
 45 51 0 0 0
SMALL
GASTEIGER

@<TRIPOS>ATOM
      1 C          -7.4598    0.8373    0.2397 C.ar    1  UNL1        0.0994
      2 O          -6.5465    1.6586    0.8418 O.2     1  UNL1       -0.4698
      3 C          -5.3030    1.1338    0.6111 C.ar    1  UNL1        0.1000
      4 C          -5.4114   -0.0156   -0.1310 C.ar    1  UNL1        0.0277
      5 C          -4.3975   -0.8580   -0.6011 C.ar    1  UNL1       -0.0036
      6 C          -4.9677   -1.9176   -1.3621 C.ar    1  UNL1       -0.0532
      7 C          -6.3806   -2.0935   -1.5950 C.ar    1  UNL1       -0.0605
      8 C          -7.3822   -1.2272   -1.1026 C.ar    1  UNL1       -0.0510
      9 C          -6.8064   -0.1974   -0.3733 C.ar    1  UNL1        0.0204
     10 C          -2.9789   -0.6696   -0.3875 C.ar    1  UNL1        0.0291
     11 C          -2.0495   -0.5184   -1.4238 C.ar    1  UNL1        0.0382
     12 N          -0.6920   -0.3454   -1.3259 N.ar    1  UNL1       -0.2520
     13 C          -0.0756   -0.2752   -0.1024 C.ar    1  UNL1        0.1012
     14 C           1.3588   -0.0758   -0.0717 C.ar    1  UNL1        0.0307
     15 C           2.2611   -0.9053   -0.7737 C.ar    1  UNL1       -0.0497
     16 C           3.6649   -0.7305   -0.7568 C.ar    1  UNL1       -0.0512
     17 C           4.3227    0.3026   -0.0479 C.ar    1  UNL1        0.0118
     18 C           5.7793    0.4542   -0.0434 C.ar    1  UNL1        0.0023
     19 C           6.4099    1.6635   -0.3622 C.ar    1  UNL1       -0.0511
     20 C           7.8010    1.7571   -0.3615 C.ar    1  UNL1       -0.0430
     21 C           8.5352    0.6281   -0.0447 C.ar    1  UNL1        0.0276
     22 N           7.9795   -0.5608    0.2648 N.ar    1  UNL1       -0.2627
     23 C           6.6247   -0.6146    0.2623 C.ar    1  UNL1        0.0353
     24 C           3.4596    1.1932    0.6620 C.ar    1  UNL1        0.1082
     25 N           3.8333    2.2522    1.4035 N.ar    1  UNL1       -0.1901
     26 S           2.4537    2.9468    1.9955 S.2     1  UNL1        0.1165
     27 N           1.3036    1.9597    1.3337 N.ar    1  UNL1       -0.1901
     28 C           1.9515    1.0038    0.6429 C.ar    1  UNL1        0.1097
     29 C          -0.8811   -0.4657    1.0524 C.ar    1  UNL1        0.1264
     30 N          -0.4783   -0.5313    2.3351 N.ar    1  UNL1       -0.1886
     31 S          -1.8355   -0.7523    3.2556 S.2     1  UNL1        0.1166
     32 N          -2.9949   -0.8301    2.0770 N.ar    1  UNL1       -0.1900
     33 C          -2.3727   -0.6613    0.8957 C.ar    1  UNL1        0.1111
     34 H          -8.4932    1.1360    0.3424 H       1  UNL1        0.1035
     35 H          -4.4828    1.6919    1.0400 H       1  UNL1        0.1036
     36 H          -4.3014   -2.6654   -1.7970 H       1  UNL1        0.0624
     37 H          -6.6925   -2.9535   -2.1899 H       1  UNL1        0.0618
     38 H          -8.4382   -1.3658   -1.2845 H       1  UNL1        0.0625
     39 H          -2.3995   -0.5241   -2.4577 H       1  UNL1        0.0836
     40 H           1.8562   -1.7302   -1.3642 H       1  UNL1        0.0625
     41 H           4.2637   -1.4321   -1.3416 H       1  UNL1        0.0624
     42 H           5.8224    2.5440   -0.6134 H       1  UNL1        0.0625
     43 H           8.2967    2.6908   -0.6020 H       1  UNL1        0.0633
     44 H           9.6210    0.6513   -0.0304 H       1  UNL1        0.0829
     45 H           6.2225   -1.5882    0.5326 H       1  UNL1        0.0836
@<TRIPOS>BOND
     1     1     2   ar
     2     2     3   ar
     3     3     4   ar
     4     4     5   ar
     5     5     6   ar
     6     6     7   ar
     7     7     8   ar
     8     8     9   ar
     9     5    10    1
    10    10    11   ar
    11    11    12   ar
    12    12    13   ar
    13    13    14    1
    14    14    15   ar
    15    15    16   ar
    16    16    17   ar
    17    17    18    1
    18    18    19   ar
    19    19    20   ar
    20    20    21   ar
    21    21    22   ar
    22    22    23   ar
    23    17    24   ar
    24    24    25   ar
    25    25    26   ar
    26    26    27   ar
    27    27    28   ar
    28    13    29   ar
    29    29    30   ar
    30    30    31   ar
    31    31    32   ar
    32    32    33   ar
    33     9     1   ar
    34    33    10   ar
    35     9     4   ar
    36    28    14   ar
    37    33    29   ar
    38    23    18   ar
    39    28    24   ar
    40     1    34    1
    41     3    35    1
    42     6    36    1
    43     7    37    1
    44     8    38    1
    45    11    39    1
    46    15    40    1
    47    16    41    1
    48    19    42    1
    49    20    43    1
    50    21    44    1
    51    23    45    1
