@<TRIPOS>MOLECULE
*****
 40 46 0 0 0
SMALL
GASTEIGER

@<TRIPOS>ATOM
      1 C          -2.0199   -2.5561    0.9229 C.ar    1  UNL1        0.1000
      2 O          -0.9435   -3.3383    1.2624 O.2     1  UNL1       -0.4698
      3 C           0.1886   -2.5838    1.0845 C.ar    1  UNL1        0.1001
      4 C          -0.2032   -1.3596    0.6451 C.ar    1  UNL1        0.0302
      5 C          -1.6056   -1.2975    0.5431 C.ar    1  UNL1        0.0284
      6 C          -2.4009   -0.2211    0.1227 C.ar    1  UNL1       -0.0016
      7 C          -1.6146    0.9081   -0.2375 C.ar    1  UNL1       -0.0292
      8 C          -0.1968    0.8829   -0.1460 C.ar    1  UNL1        0.0488
      9 N           0.7530    1.8381   -0.4360 N.ar    1  UNL1       -0.3541
     10 C           2.0291    1.3605   -0.1878 C.ar    1  UNL1        0.0482
     11 C           3.2671    1.9936   -0.3425 C.ar    1  UNL1       -0.0286
     12 C           4.4259    1.2654   -0.0133 C.ar    1  UNL1        0.0024
     13 C           5.6973    1.8387   -0.1443 C.ar    1  UNL1       -0.0511
     14 C           6.8287    1.1032    0.1859 C.ar    1  UNL1       -0.0430
     15 C           6.6495   -0.1887    0.6388 C.ar    1  UNL1        0.0283
     16 N           5.4413   -0.7760    0.7786 N.ar    1  UNL1       -0.2550
     17 C           4.3476   -0.0618    0.4579 C.ar    1  UNL1        0.0717
     18 C           3.0974   -0.6534    0.5961 C.ar    1  UNL1       -0.0260
     19 C           1.9177    0.0466    0.2764 C.ar    1  UNL1        0.0101
     20 C           0.5407   -0.2057    0.2855 C.ar    1  UNL1        0.0182
     21 C          -3.8513   -0.2439    0.0720 C.ar    1  UNL1        0.0291
     22 C          -4.6814   -0.5454    1.1627 C.ar    1  UNL1        0.0375
     23 N          -6.0546   -0.5887    1.2004 N.ar    1  UNL1       -0.2604
     24 C          -6.7889   -0.3102    0.0856 C.ar    1  UNL1        0.0557
     25 C          -6.0989    0.0259   -1.0948 C.ar    1  UNL1        0.1185
     26 N          -6.6488    0.3345   -2.2804 N.ar    1  UNL1       -0.1892
     27 S          -5.3885    0.6358   -3.3163 S.2     1  UNL1        0.1165
     28 N          -4.0950    0.4042   -2.3057 N.ar    1  UNL1       -0.1901
     29 C          -4.5906    0.0630   -1.1010 C.ar    1  UNL1        0.1105
     30 H          -2.9778   -3.0507    1.0061 H       1  UNL1        0.1036
     31 H           1.1229   -3.0774    1.3061 H       1  UNL1        0.1036
     32 H          -2.1077    1.8127   -0.5905 H       1  UNL1        0.0644
     33 H           0.5470    2.7625   -0.7860 H       1  UNL1        0.1659
     34 H           3.3288    3.0148   -0.7059 H       1  UNL1        0.0645
     35 H           5.8128    2.8581   -0.5033 H       1  UNL1        0.0625
     36 H           7.8220    1.5265    0.0922 H       1  UNL1        0.0633
     37 H           7.4980   -0.8098    0.9114 H       1  UNL1        0.0830
     38 H           3.0491   -1.6750    0.9592 H       1  UNL1        0.0646
     39 H          -4.2294   -0.7738    2.1299 H       1  UNL1        0.0836
     40 H          -7.8669   -0.3578    0.1631 H       1  UNL1        0.0852
@<TRIPOS>BOND
     1     1     2   ar
     2     2     3   ar
     3     3     4   ar
     4     4     5   ar
     5     5     6   ar
     6     6     7   ar
     7     7     8   ar
     8     8     9   ar
     9     9    10   ar
    10    10    11   ar
    11    11    12   ar
    12    12    13   ar
    13    13    14   ar
    14    14    15   ar
    15    15    16   ar
    16    16    17   ar
    17    17    18   ar
    18    18    19   ar
    19    19    20   ar
    20     6    21    1
    21    21    22   ar
    22    22    23   ar
    23    23    24   ar
    24    24    25   ar
    25    25    26   ar
    26    26    27   ar
    27    27    28   ar
    28    28    29   ar
    29     5     1   ar
    30    20     8   ar
    31    29    21   ar
    32    20     4   ar
    33    29    25   ar
    34    19    10   ar
    35    17    12   ar
    36     1    30    1
    37     3    31    1
    38     7    32    1
    39     9    33    1
    40    11    34    1
    41    13    35    1
    42    14    36    1
    43    15    37    1
    44    18    38    1
    45    22    39    1
    46    24    40    1
