@<TRIPOS>MOLECULE
*****
 45 52 0 0 0
SMALL
GASTEIGER

@<TRIPOS>ATOM
      1 C           2.7943    2.3834   -0.6139 C.ar    1  UNL1        0.1000
      2 O           1.8976    3.3445   -0.9581 O.2     1  UNL1       -0.4698
      3 C           0.6505    2.8119   -0.8109 C.ar    1  UNL1        0.1000
      4 C           0.7194    1.4951   -0.4167 C.ar    1  UNL1        0.0287
      5 C           2.1302    1.2477   -0.2222 C.ar    1  UNL1        0.0283
      6 C           2.7156    0.0777    0.2604 C.ar    1  UNL1       -0.0030
      7 C           1.7048   -0.8512    0.5736 C.ar    1  UNL1       -0.0448
      8 C           0.2767   -0.6096    0.3921 C.ar    1  UNL1       -0.0053
      9 C          -0.7089   -1.5460    0.7432 C.ar    1  UNL1        0.0282
     10 C          -0.4882   -2.7975    1.2648 C.ar    1  UNL1        0.1000
     11 O          -1.6713   -3.4405    1.4424 O.2     1  UNL1       -0.4698
     12 C          -2.6561   -2.5916    1.0329 C.ar    1  UNL1        0.1000
     13 C          -2.1270   -1.3879    0.6261 C.ar    1  UNL1        0.0288
     14 C          -2.8128   -0.2495    0.1036 C.ar    1  UNL1        0.0026
     15 C          -1.8442    0.7142   -0.3723 C.ar    1  UNL1       -0.0082
     16 C          -2.3975    1.7862   -1.0950 C.ar    1  UNL1       -0.0528
     17 C          -3.7713    1.9813   -1.2757 C.ar    1  UNL1       -0.0533
     18 C          -4.7022    1.1111   -0.7200 C.ar    1  UNL1       -0.0144
     19 C          -6.0709    1.3662   -0.8822 C.ar    1  UNL1       -0.0359
     20 C          -6.9843    0.5080   -0.3050 C.ar    1  UNL1        0.0281
     21 N          -6.6263   -0.5603    0.4219 N.ar    1  UNL1       -0.2626
     22 C          -5.2929   -0.7827    0.5567 C.ar    1  UNL1        0.0359
     23 C          -4.2534   -0.0143   -0.0054 C.ar    1  UNL1        0.0086
     24 C          -0.3590    0.5780   -0.1615 C.ar    1  UNL1        0.0013
     25 C           4.1339   -0.1439    0.4584 C.ar    1  UNL1        0.0291
     26 C           4.9707    0.6697    1.2371 C.ar    1  UNL1        0.0375
     27 N           6.3169    0.5258    1.4726 N.ar    1  UNL1       -0.2604
     28 C           7.0100   -0.5167    0.9308 C.ar    1  UNL1        0.0557
     29 C           6.3042   -1.4359    0.1314 C.ar    1  UNL1        0.1185
     30 N           6.8116   -2.5200   -0.4770 N.ar    1  UNL1       -0.1892
     31 S           5.5514   -3.2375   -1.2834 S.2     1  UNL1        0.1165
     32 N           4.3093   -2.2116   -0.8903 N.ar    1  UNL1       -0.1901
     33 C           4.8275   -1.2458   -0.1086 C.ar    1  UNL1        0.1105
     34 H           3.8320    2.6789   -0.6851 H       1  UNL1        0.1036
     35 H          -0.1370    3.5198   -1.0140 H       1  UNL1        0.1036
     36 H           2.0186   -1.8114    0.9850 H       1  UNL1        0.0630
     37 H           0.3865   -3.3705    1.5381 H       1  UNL1        0.1036
     38 H          -3.6394   -3.0310    1.0836 H       1  UNL1        0.1036
     39 H          -1.7631    2.4987   -1.6062 H       1  UNL1        0.0624
     40 H          -4.0976    2.8424   -1.8575 H       1  UNL1        0.0624
     41 H          -6.4270    2.2236   -1.4442 H       1  UNL1        0.0639
     42 H          -8.0532    0.6695   -0.4071 H       1  UNL1        0.0830
     43 H          -5.0938   -1.6254    1.2044 H       1  UNL1        0.0836
     44 H           4.5477    1.5355    1.7502 H       1  UNL1        0.0836
     45 H           8.0680   -0.5886    1.1449 H       1  UNL1        0.0852
@<TRIPOS>BOND
     1     1     2   ar
     2     2     3   ar
     3     3     4   ar
     4     4     5   ar
     5     5     6   ar
     6     6     7   ar
     7     7     8   ar
     8     8     9   ar
     9     9    10   ar
    10    10    11   ar
    11    11    12   ar
    12    12    13   ar
    13    13    14   ar
    14    14    15   ar
    15    15    16   ar
    16    16    17   ar
    17    17    18   ar
    18    18    19   ar
    19    19    20   ar
    20    20    21   ar
    21    21    22   ar
    22    22    23   ar
    23    15    24   ar
    24     6    25    1
    25    25    26   ar
    26    26    27   ar
    27    27    28   ar
    28    28    29   ar
    29    29    30   ar
    30    30    31   ar
    31    31    32   ar
    32    32    33   ar
    33     5     1   ar
    34    24     8   ar
    35    33    25   ar
    36    24     4   ar
    37    33    29   ar
    38    13     9   ar
    39    23    14   ar
    40    23    18   ar
    41     1    34    1
    42     3    35    1
    43     7    36    1
    44    10    37    1
    45    12    38    1
    46    16    39    1
    47    17    40    1
    48    19    41    1
    49    20    42    1
    50    22    43    1
    51    26    44    1
    52    28    45    1
