@<TRIPOS>MOLECULE
*****
 49 55 0 0 0
SMALL
GASTEIGER

@<TRIPOS>ATOM
      1 SI         -6.1542    2.8182    1.0647 Si      1  UNL1        0.0000
      2 C          -6.8023    1.0755    1.1085 C.2     1  UNL1        0.0000
      3 C          -5.8230    0.1885    0.8495 C.ar    1  UNL1        0.0000
      4 C          -6.0676   -1.2202    0.6589 C.ar    1  UNL1        0.0000
      5 C          -5.0694   -2.0119    0.2407 C.ar    1  UNL1        0.0000
      6 C          -3.6987   -1.4917    0.0545 C.ar    1  UNL1        0.0000
      7 C          -2.7128   -2.3411   -0.3931 C.ar    1  UNL1        0.0000
      8 N          -1.4188   -1.9918   -0.5302 N.ar    1  UNL1        0.0000
      9 C          -0.9775   -0.7794   -0.1441 C.ar    1  UNL1        0.0000
     10 C          -1.9204    0.1558    0.3779 C.ar    1  UNL1        0.0000
     11 C          -1.4167    1.3393    0.9373 C.ar    1  UNL1        0.0000
     12 C          -0.0664    1.6455    0.9081 C.ar    1  UNL1        0.0000
     13 C           0.8441    0.7753    0.3228 C.ar    1  UNL1        0.0000
     14 C           2.1828    1.1654    0.3299 C.ar    1  UNL1        0.0000
     15 C           3.1855    0.3587   -0.2054 C.ar    1  UNL1        0.0000
     16 C           4.5528    0.8768   -0.1233 C.2     1  UNL1        0.0000
     17 C           5.1777    1.6590   -1.0271 C.2     1  UNL1        0.0000
     18 C           6.5370    2.0398   -0.6758 C.2     1  UNL1        0.0000
     19 C           6.9804    1.5659    0.5032 C.2     1  UNL1        0.0000
     20 SI          5.6673    0.5192    1.3635 Si      1  UNL1        0.0000
     21 C           2.8488   -0.8688   -0.8113 C.ar    1  UNL1        0.0000
     22 C           3.8513   -1.6817   -1.4016 C.ar    1  UNL1        0.0000
     23 C           3.5622   -2.8953   -2.0134 C.ar    1  UNL1        0.0000
     24 C           2.2537   -3.3241   -2.0563 C.ar    1  UNL1        0.0000
     25 C           1.2482   -2.5376   -1.4846 C.ar    1  UNL1        0.0000
     26 C           1.4829   -1.2930   -0.8345 C.ar    1  UNL1        0.0000
     27 C           0.4305   -0.4614   -0.2330 C.ar    1  UNL1        0.0000
     28 C          -3.3168   -0.1696    0.3649 C.ar    1  UNL1        0.0000
     29 C          -4.4629    0.7594    0.6575 C.ar    1  UNL1        0.0000
     30 C          -4.4692    2.1109    0.6426 C.2     1  UNL1        0.0000
     31 H          -6.7241    3.6147   -0.0481 H       1  UNL1        0.0000
     32 H          -6.1676    3.4703    2.3962 H       1  UNL1        0.0000
     33 H          -7.8520    0.8682    1.2440 H       1  UNL1        0.0000
     34 H          -7.0680   -1.6133    0.8060 H       1  UNL1        0.0000
     35 H          -5.2489   -3.0672    0.0616 H       1  UNL1        0.0000
     36 H          -2.9282   -3.3695   -0.6699 H       1  UNL1        0.0000
     37 H          -2.0586    2.0314    1.4701 H       1  UNL1        0.0000
     38 H           0.2610    2.5789    1.3636 H       1  UNL1        0.0000
     39 H           2.4643    2.1230    0.7690 H       1  UNL1        0.0000
     40 H           4.7278    1.9949   -1.9538 H       1  UNL1        0.0000
     41 H           7.1275    2.6629   -1.3364 H       1  UNL1        0.0000
     42 H           7.9496    1.7283    0.9474 H       1  UNL1        0.0000
     43 H           6.0826   -0.9025    1.4565 H       1  UNL1        0.0000
     44 H           5.1881    1.1622    2.6131 H       1  UNL1        0.0000
     45 H           4.8930   -1.3668   -1.4001 H       1  UNL1        0.0000
     46 H           4.3549   -3.4905   -2.4565 H       1  UNL1        0.0000
     47 H           1.9973   -4.2647   -2.5358 H       1  UNL1        0.0000
     48 H           0.2447   -2.9384   -1.5786 H       1  UNL1        0.0000
     49 H          -3.6719    2.7925    0.4049 H       1  UNL1        0.0000
@<TRIPOS>BOND
     1     1     2    1
     2     2     3    2
     3     3     4   ar
     4     4     5   ar
     5     5     6   ar
     6     6     7   ar
     7     7     8   ar
     8     8     9   ar
     9     9    10   ar
    10    10    11   ar
    11    11    12   ar
    12    12    13   ar
    13    13    14   ar
    14    14    15   ar
    15    15    16    1
    16    16    17    2
    17    17    18    1
    18    18    19    2
    19    19    20    1
    20    15    21   ar
    21    21    22   ar
    22    22    23   ar
    23    23    24   ar
    24    24    25   ar
    25    25    26   ar
    26    26    27   ar
    27    10    28   ar
    28    28    29   ar
    29    29    30    2
    30    30     1    1
    31    29     3   ar
    32    28     6   ar
    33    27     9   ar
    34    27    13   ar
    35    20    16    1
    36    26    21   ar
    37     1    31    1
    38     1    32    1
    39     2    33    1
    40     4    34    1
    41     5    35    1
    42     7    36    1
    43    11    37    1
    44    12    38    1
    45    14    39    1
    46    17    40    1
    47    18    41    1
    48    19    42    1
    49    20    43    1
    50    20    44    1
    51    22    45    1
    52    23    46    1
    53    24    47    1
    54    25    48    1
    55    30    49    1
