@<TRIPOS>MOLECULE
*****
 48 55 0 0 0
SMALL
GASTEIGER

@<TRIPOS>ATOM
      1 C           3.1137   -2.2841   -0.6915 C.ar    1  UNL1        0.1001
      2 O           2.0403   -3.0484   -1.0331 O.2     1  UNL1       -0.4698
      3 C           0.9245   -2.2959   -0.8286 C.ar    1  UNL1        0.1000
      4 C           1.2543   -1.0753   -0.2847 C.ar    1  UNL1        0.0288
      5 C           2.6985   -1.0424   -0.2739 C.ar    1  UNL1        0.0311
      6 C           3.5059    0.0574    0.0356 C.ar    1  UNL1        0.0305
      7 C           2.6666    1.1825    0.2301 C.ar    1  UNL1       -0.0419
      8 C           1.2075    1.1537    0.1856 C.ar    1  UNL1       -0.0052
      9 C           0.3928    2.2913    0.2594 C.ar    1  UNL1        0.0282
     10 C           0.8112    3.5867    0.4367 C.ar    1  UNL1        0.1000
     11 O          -0.2644    4.4189    0.4638 O.2     1  UNL1       -0.4698
     12 C          -1.3749    3.6479    0.2865 C.ar    1  UNL1        0.1000
     13 C          -1.0271    2.3283    0.1056 C.ar    1  UNL1        0.0288
     14 C          -1.8906    1.2039   -0.0761 C.ar    1  UNL1        0.0032
     15 C          -3.2980    1.1999   -0.3952 C.ar    1  UNL1        0.0092
     16 C          -4.0040    2.3151   -0.8918 C.ar    1  UNL1        0.0359
     17 N          -5.3183    2.3634   -1.2105 N.ar    1  UNL1       -0.2626
     18 C          -5.9970    1.2232   -1.0601 C.ar    1  UNL1        0.0282
     19 C          -5.4119    0.0498   -0.6186 C.ar    1  UNL1       -0.0353
     20 C          -4.0344    0.0041   -0.2805 C.ar    1  UNL1       -0.0067
     21 C          -3.3793   -1.1714    0.2021 C.ar    1  UNL1       -0.0095
     22 C          -4.0891   -2.3715    0.4862 C.ar    1  UNL1       -0.0534
     23 C          -3.4879   -3.4903    1.0587 C.ar    1  UNL1       -0.0611
     24 C          -2.1545   -3.4346    1.3970 C.ar    1  UNL1       -0.0611
     25 C          -1.4267   -2.2817    1.1058 C.ar    1  UNL1       -0.0534
     26 C          -1.9731   -1.1559    0.4384 C.ar    1  UNL1       -0.0090
     27 C          -1.1623   -0.0119    0.1181 C.ar    1  UNL1       -0.0005
     28 C           0.3534   -0.0110    0.0323 C.ar    1  UNL1        0.0019
     29 C           4.9667    0.1011    0.0835 C.ar    1  UNL1        0.1637
     30 N           5.6465   -1.0468    0.1412 N.ar    1  UNL1       -0.2160
     31 C           6.9696   -0.9139    0.2055 C.ar    1  UNL1        0.1200
     32 N           7.6420    0.2324    0.2176 N.ar    1  UNL1       -0.2241
     33 C           6.8649    1.3089    0.1616 C.ar    1  UNL1        0.1200
     34 N           5.5354    1.3130    0.0982 N.ar    1  UNL1       -0.2160
     35 H           4.0733   -2.7569   -0.8471 H       1  UNL1        0.1036
     36 H           0.0016   -2.7716   -1.1299 H       1  UNL1        0.1036
     37 H           3.1523    2.1440    0.4052 H       1  UNL1        0.0631
     38 H           1.7681    4.0711    0.5705 H       1  UNL1        0.1036
     39 H          -2.3012    4.2000    0.3505 H       1  UNL1        0.1036
     40 H          -3.5027    3.2487   -1.1205 H       1  UNL1        0.0836
     41 H          -7.0510    1.2648   -1.3179 H       1  UNL1        0.0830
     42 H          -6.0533   -0.8209   -0.5528 H       1  UNL1        0.0639
     43 H          -5.1551   -2.4548    0.2959 H       1  UNL1        0.0624
     44 H          -4.0743   -4.3795    1.2728 H       1  UNL1        0.0618
     45 H          -1.6744   -4.2727    1.8950 H       1  UNL1        0.0618
     46 H          -0.3970   -2.2656    1.4593 H       1  UNL1        0.0624
     47 H           7.5534   -1.8271    0.2527 H       1  UNL1        0.1048
     48 H           7.3599    2.2741    0.1696 H       1  UNL1        0.1048
@<TRIPOS>BOND
     1     1     2   ar
     2     2     3   ar
     3     3     4   ar
     4     4     5   ar
     5     5     6   ar
     6     6     7   ar
     7     7     8   ar
     8     8     9   ar
     9     9    10   ar
    10    10    11   ar
    11    11    12   ar
    12    12    13   ar
    13    13    14   ar
    14    14    15   ar
    15    15    16   ar
    16    16    17   ar
    17    17    18   ar
    18    18    19   ar
    19    19    20   ar
    20    20    21   ar
    21    21    22   ar
    22    22    23   ar
    23    23    24   ar
    24    24    25   ar
    25    25    26   ar
    26    26    27   ar
    27    27    28   ar
    28     6    29    1
    29    29    30   ar
    30    30    31   ar
    31    31    32   ar
    32    32    33   ar
    33    33    34   ar
    34     5     1   ar
    35    28     8   ar
    36    34    29   ar
    37    28     4   ar
    38    13     9   ar
    39    27    14   ar
    40    20    15   ar
    41    26    21   ar
    42     1    35    1
    43     3    36    1
    44     7    37    1
    45    10    38    1
    46    12    39    1
    47    16    40    1
    48    18    41    1
    49    19    42    1
    50    22    43    1
    51    23    44    1
    52    24    45    1
    53    25    46    1
    54    31    47    1
    55    33    48    1
