@<TRIPOS>MOLECULE
*****
 45 52 0 0 0
SMALL
GASTEIGER

@<TRIPOS>ATOM
      1 C          -2.3627    0.5970   -2.7923 C.ar    1  UNL1        0.1000
      2 O          -1.3284    0.8378   -3.6398 O.2     1  UNL1       -0.4698
      3 C          -0.1757    0.6897   -2.9273 C.ar    1  UNL1        0.1000
      4 C          -0.4438    0.4044   -1.6079 C.ar    1  UNL1        0.0288
      5 C          -1.8842    0.2851   -1.5437 C.ar    1  UNL1        0.0297
      6 C          -2.6503   -0.0775   -0.4337 C.ar    1  UNL1        0.0138
      7 C          -1.7788   -0.3737    0.6362 C.ar    1  UNL1       -0.0434
      8 C          -0.3230   -0.2679    0.5816 C.ar    1  UNL1       -0.0052
      9 C           0.5117   -0.5954    1.6625 C.ar    1  UNL1        0.0282
     10 C           0.1020   -1.0250    2.9012 C.ar    1  UNL1        0.1000
     11 O           1.1792   -1.2056    3.7087 O.2     1  UNL1       -0.4698
     12 C           2.2865   -0.8910    2.9785 C.ar    1  UNL1        0.1000
     13 C           1.9422   -0.5430    1.6921 C.ar    1  UNL1        0.0288
     14 C           2.7970   -0.1212    0.6287 C.ar    1  UNL1        0.0026
     15 C           4.2594   -0.0798    0.5848 C.ar    1  UNL1        0.0086
     16 C           5.1613   -0.6269    1.5198 C.ar    1  UNL1        0.0359
     17 N           6.5171   -0.5548    1.4729 N.ar    1  UNL1       -0.2626
     18 C           7.0460    0.0865    0.4208 C.ar    1  UNL1        0.0281
     19 C           6.2816    0.6385   -0.5867 C.ar    1  UNL1       -0.0359
     20 C           4.8853    0.5430   -0.5104 C.ar    1  UNL1       -0.0144
     21 C           4.1042    1.0740   -1.5305 C.ar    1  UNL1       -0.0533
     22 C           2.7100    0.9565   -1.5127 C.ar    1  UNL1       -0.0528
     23 C           1.9878    0.3253   -0.4843 C.ar    1  UNL1       -0.0082
     24 C           0.4899    0.1786   -0.5385 C.ar    1  UNL1        0.0013
     25 C          -4.0996   -0.1822   -0.3951 C.ar    1  UNL1        0.0997
     26 N          -4.7659   -0.6675   -1.4983 N.ar    1  UNL1       -0.2527
     27 C          -6.1283   -0.8084   -1.5185 C.ar    1  UNL1        0.0304
     28 C          -7.0200   -0.5044   -0.4981 C.ar    1  UNL1       -0.0153
     29 C          -6.3942   -0.0013    0.6563 C.ar    1  UNL1        0.1034
     30 N          -7.0290    0.3691    1.7796 N.ar    1  UNL1       -0.1907
     31 S          -5.8602    0.8948    2.8321 S.2     1  UNL1        0.1165
     32 N          -4.4966    0.6670    1.9169 N.ar    1  UNL1       -0.1886
     33 C          -4.8978    0.1701    0.7309 C.ar    1  UNL1        0.1257
     34 H          -3.3462    0.6610   -3.2366 H       1  UNL1        0.1036
     35 H           0.7107    0.8035   -3.5304 H       1  UNL1        0.1036
     36 H          -2.2274   -0.7198    1.5678 H       1  UNL1        0.0631
     37 H          -0.8533   -1.2265    3.3650 H       1  UNL1        0.1036
     38 H           3.1992   -0.9513    3.5494 H       1  UNL1        0.1036
     39 H           4.8229   -1.2098    2.3654 H       1  UNL1        0.0836
     40 H           8.1303    0.1391    0.3998 H       1  UNL1        0.0830
     41 H           6.7732    1.1295   -1.4204 H       1  UNL1        0.0639
     42 H           4.5675    1.5861   -2.3727 H       1  UNL1        0.0624
     43 H           2.1982    1.4433   -2.3331 H       1  UNL1        0.0624
     44 H          -6.5093   -1.2071   -2.4591 H       1  UNL1        0.0830
     45 H          -8.0886   -0.6397   -0.5808 H       1  UNL1        0.0655
@<TRIPOS>BOND
     1     1     2   ar
     2     2     3   ar
     3     3     4   ar
     4     4     5   ar
     5     5     6   ar
     6     6     7   ar
     7     7     8   ar
     8     8     9   ar
     9     9    10   ar
    10    10    11   ar
    11    11    12   ar
    12    12    13   ar
    13    13    14   ar
    14    14    15   ar
    15    15    16   ar
    16    16    17   ar
    17    17    18   ar
    18    18    19   ar
    19    19    20   ar
    20    20    21   ar
    21    21    22   ar
    22    22    23   ar
    23    23    24   ar
    24     6    25    1
    25    25    26   ar
    26    26    27   ar
    27    27    28   ar
    28    28    29   ar
    29    29    30   ar
    30    30    31   ar
    31    31    32   ar
    32    32    33   ar
    33     5     1   ar
    34    24     8   ar
    35    33    25   ar
    36    24     4   ar
    37    33    29   ar
    38    13     9   ar
    39    23    14   ar
    40    20    15   ar
    41     1    34    1
    42     3    35    1
    43     7    36    1
    44    10    37    1
    45    12    38    1
    46    16    39    1
    47    18    40    1
    48    19    41    1
    49    21    42    1
    50    22    43    1
    51    27    44    1
    52    28    45    1
