@<TRIPOS>MOLECULE
*****
 48 55 0 0 0
SMALL
GASTEIGER

@<TRIPOS>ATOM
      1 C          -1.4671   -0.2334    2.6202 C.ar    1  UNL1        0.1000
      2 O          -0.4962    0.0956    3.5155 O.2     1  UNL1       -0.4698
      3 C           0.6819    0.1860    2.8289 C.ar    1  UNL1        0.1000
      4 C           0.4898   -0.0809    1.4932 C.ar    1  UNL1        0.0292
      5 C          -0.9168   -0.3543    1.3704 C.ar    1  UNL1        0.0282
      6 C          -1.5950   -0.6786    0.1973 C.ar    1  UNL1       -0.0060
      7 C          -0.7002   -0.7105   -0.8948 C.ar    1  UNL1       -0.0450
      8 C           0.7328   -0.4364   -0.8024 C.ar    1  UNL1       -0.0073
      9 C           1.6347   -0.4626   -1.8935 C.ar    1  UNL1       -0.0025
     10 C           1.2254   -0.7570   -3.1807 C.ar    1  UNL1       -0.0160
     11 S           2.5109   -0.7217   -4.3179 S.2     1  UNL1       -0.1038
     12 C           3.6511   -0.3074   -3.1014 C.ar    1  UNL1       -0.0160
     13 C           3.0379   -0.2088   -1.8835 C.ar    1  UNL1       -0.0014
     14 C           3.6654    0.1230   -0.6120 C.ar    1  UNL1        0.0072
     15 C           5.0569    0.4108   -0.3820 C.ar    1  UNL1        0.0156
     16 C           6.2067    0.4738   -1.1909 C.ar    1  UNL1        0.0364
     17 N           7.4275    0.7797   -0.6867 N.ar    1  UNL1       -0.2626
     18 C           7.5525    1.0314    0.6238 C.ar    1  UNL1        0.0286
     19 C           6.5015    0.9991    1.5115 C.ar    1  UNL1       -0.0292
     20 C           5.2448    0.6813    0.9763 C.ar    1  UNL1        0.0234
     21 S           3.7890    0.5766    1.8669 S.2     1  UNL1       -0.0875
     22 C           2.8222    0.1650    0.4999 C.ar    1  UNL1        0.0295
     23 C           1.4169   -0.0997    0.4281 C.ar    1  UNL1        0.0078
     24 C          -3.0243   -0.9559    0.1084 C.ar    1  UNL1       -0.0095
     25 C          -3.4471   -2.2942    0.2043 C.ar    1  UNL1       -0.0534
     26 C          -4.7953   -2.6273    0.1272 C.ar    1  UNL1       -0.0606
     27 C          -5.7455   -1.6261   -0.0494 C.ar    1  UNL1       -0.0540
     28 C          -5.3638   -0.2806   -0.1524 C.ar    1  UNL1       -0.0173
     29 C          -6.3378    0.7158   -0.3316 C.ar    1  UNL1       -0.0540
     30 C          -5.9809    2.0591   -0.4371 C.ar    1  UNL1       -0.0612
     31 C          -4.6436    2.4244   -0.3652 C.ar    1  UNL1       -0.0611
     32 C          -3.6633    1.4457   -0.1874 C.ar    1  UNL1       -0.0534
     33 C          -3.9923    0.0736   -0.0755 C.ar    1  UNL1       -0.0102
     34 H          -2.4637   -0.3373    3.0271 H       1  UNL1        0.1036
     35 H           1.5236    0.4450    3.4522 H       1  UNL1        0.1036
     36 H          -1.1305   -0.9554   -1.8655 H       1  UNL1        0.0630
     37 H           0.2397   -0.9969   -3.5518 H       1  UNL1        0.0700
     38 H           4.6714   -0.1761   -3.4112 H       1  UNL1        0.0700
     39 H           6.2196    0.2891   -2.2546 H       1  UNL1        0.0836
     40 H           8.5587    1.2692    0.9578 H       1  UNL1        0.0830
     41 H           6.6416    1.2081    2.5652 H       1  UNL1        0.0644
     42 H          -2.7150   -3.0879    0.3450 H       1  UNL1        0.0624
     43 H          -5.1057   -3.6659    0.2056 H       1  UNL1        0.0618
     44 H          -6.7955   -1.9063   -0.1069 H       1  UNL1        0.0624
     45 H          -7.3915    0.4506   -0.3907 H       1  UNL1        0.0624
     46 H          -6.7473    2.8171   -0.5749 H       1  UNL1        0.0618
     47 H          -4.3577    3.4699   -0.4460 H       1  UNL1        0.0618
     48 H          -2.6262    1.7714   -0.1352 H       1  UNL1        0.0624
@<TRIPOS>BOND
     1     1     2   ar
     2     2     3   ar
     3     3     4   ar
     4     4     5   ar
     5     5     6   ar
     6     6     7   ar
     7     7     8   ar
     8     8     9   ar
     9     9    10   ar
    10    10    11   ar
    11    11    12   ar
    12    12    13   ar
    13    13    14   ar
    14    14    15   ar
    15    15    16   ar
    16    16    17   ar
    17    17    18   ar
    18    18    19   ar
    19    19    20   ar
    20    20    21   ar
    21    21    22   ar
    22    22    23   ar
    23     6    24    1
    24    24    25   ar
    25    25    26   ar
    26    26    27   ar
    27    27    28   ar
    28    28    29   ar
    29    29    30   ar
    30    30    31   ar
    31    31    32   ar
    32    32    33   ar
    33     5     1   ar
    34    23     8   ar
    35    33    24   ar
    36    23     4   ar
    37    33    28   ar
    38    13     9   ar
    39    22    14   ar
    40    20    15   ar
    41     1    34    1
    42     3    35    1
    43     7    36    1
    44    10    37    1
    45    12    38    1
    46    16    39    1
    47    18    40    1
    48    19    41    1
    49    25    42    1
    50    26    43    1
    51    27    44    1
    52    29    45    1
    53    30    46    1
    54    31    47    1
    55    32    48    1
