@<TRIPOS>MOLECULE
*****
 44 50 0 0 0
SMALL
GASTEIGER

@<TRIPOS>ATOM
      1 C           3.3533    2.3225    1.0877 C.ar    1  UNL1        0.1000
      2 O           2.5383    3.3160    1.5525 O.2     1  UNL1       -0.4698
      3 C           1.2475    2.9134    1.3575 C.ar    1  UNL1        0.1000
      4 C           1.2321    1.6738    0.7709 C.ar    1  UNL1        0.0282
      5 C           2.5982    1.2982    0.5727 C.ar    1  UNL1        0.0296
      6 C           3.0320    0.0953    0.0072 C.ar    1  UNL1        0.0116
      7 C           1.9041   -0.7152   -0.3190 C.ar    1  UNL1       -0.0441
      8 C           0.5147   -0.3560   -0.1321 C.ar    1  UNL1       -0.0160
      9 C          -0.5022   -1.2353   -0.5030 C.ar    1  UNL1       -0.0456
     10 C          -1.8699   -0.8911   -0.3256 C.ar    1  UNL1       -0.0059
     11 C          -2.9570   -1.7183   -0.6735 C.ar    1  UNL1        0.0282
     12 C          -2.9249   -2.9725   -1.2301 C.ar    1  UNL1        0.1000
     13 O          -4.1987   -3.4321   -1.4124 O.2     1  UNL1       -0.4698
     14 C          -5.0498   -2.4609   -0.9666 C.ar    1  UNL1        0.1000
     15 C          -4.3289   -1.3893   -0.5036 C.ar    1  UNL1        0.0282
     16 C          -4.8157   -0.1851    0.0393 C.ar    1  UNL1       -0.0037
     17 C          -6.1746    0.1489    0.2109 C.ar    1  UNL1       -0.0352
     18 C          -6.4639    1.3782    0.7613 C.ar    1  UNL1        0.0282
     19 N          -5.5212    2.2620    1.1372 N.ar    1  UNL1       -0.2626
     20 C          -4.2199    1.9015    0.9554 C.ar    1  UNL1        0.0359
     21 C          -3.7492    0.6946    0.4115 C.ar    1  UNL1        0.0086
     22 C          -2.3108    0.3570    0.2367 C.ar    1  UNL1       -0.0074
     23 C          -1.2641    1.2277    0.6067 C.ar    1  UNL1       -0.0450
     24 C           0.1067    0.8884    0.4300 C.ar    1  UNL1       -0.0065
     25 C           4.4144   -0.3088   -0.2160 C.ar    1  UNL1        0.0717
     26 C           5.3675    0.5274   -0.7962 C.ar    1  UNL1       -0.0357
     27 C           6.6637    0.0529   -0.9877 C.ar    1  UNL1       -0.0583
     28 C           6.9765   -1.2441   -0.6047 C.ar    1  UNL1       -0.0436
     29 C           5.9728   -2.0185   -0.0518 C.ar    1  UNL1        0.0283
     30 N           4.7075   -1.5848    0.1414 N.ar    1  UNL1       -0.2550
     31 H           4.4115    2.5071    1.2082 H       1  UNL1        0.1036
     32 H           0.4931    3.6086    1.6968 H       1  UNL1        0.1036
     33 H           2.1203   -1.6963   -0.7521 H       1  UNL1        0.0630
     34 H          -0.2429   -2.1996   -0.9340 H       1  UNL1        0.0630
     35 H          -2.1437   -3.6504   -1.5436 H       1  UNL1        0.1036
     36 H          -6.1009   -2.6965   -1.0527 H       1  UNL1        0.1036
     37 H          -6.9741   -0.5238   -0.0737 H       1  UNL1        0.0639
     38 H          -7.4900    1.6966    0.9204 H       1  UNL1        0.0830
     39 H          -3.5353    2.6764    1.2879 H       1  UNL1        0.0836
     40 H          -1.4838    2.1963    1.0449 H       1  UNL1        0.0630
     41 H           5.1102    1.5315   -1.1175 H       1  UNL1        0.0639
     42 H           7.4193    0.6903   -1.4381 H       1  UNL1        0.0619
     43 H           7.9750   -1.6443   -0.7394 H       1  UNL1        0.0633
     44 H           6.1625   -3.0417    0.2600 H       1  UNL1        0.0830
@<TRIPOS>BOND
     1     1     2   ar
     2     2     3   ar
     3     3     4   ar
     4     4     5   ar
     5     5     6   ar
     6     6     7   ar
     7     7     8   ar
     8     8     9   ar
     9     9    10   ar
    10    10    11   ar
    11    11    12   ar
    12    12    13   ar
    13    13    14   ar
    14    14    15   ar
    15    15    16   ar
    16    16    17   ar
    17    17    18   ar
    18    18    19   ar
    19    19    20   ar
    20    20    21   ar
    21    21    22   ar
    22    22    23   ar
    23    23    24   ar
    24     6    25    1
    25    25    26   ar
    26    26    27   ar
    27    27    28   ar
    28    28    29   ar
    29    29    30   ar
    30     5     1   ar
    31    24     8   ar
    32    30    25   ar
    33    24     4   ar
    34    22    10   ar
    35    15    11   ar
    36    21    16   ar
    37     1    31    1
    38     3    32    1
    39     7    33    1
    40     9    34    1
    41    12    35    1
    42    14    36    1
    43    17    37    1
    44    18    38    1
    45    20    39    1
    46    23    40    1
    47    26    41    1
    48    27    42    1
    49    28    43    1
    50    29    44    1
