@<TRIPOS>MOLECULE
*****
 46 53 0 0 0
SMALL
GASTEIGER

@<TRIPOS>ATOM
      1 C           3.3751    0.1488    2.4500 C.ar    1  UNL1        0.1000
      2 O           2.4319    0.1491    3.4391 O.2     1  UNL1       -0.4698
      3 C           1.2045    0.1682    2.8382 C.ar    1  UNL1        0.1001
      4 C           1.3561    0.1820    1.4757 C.ar    1  UNL1        0.0317
      5 C           2.7638    0.1852    1.2215 C.ar    1  UNL1        0.0284
      6 C           3.3561    0.1902   -0.0474 C.ar    1  UNL1       -0.0030
      7 C           2.3485    0.1824   -1.0590 C.ar    1  UNL1       -0.0454
      8 C           0.9202    0.1802   -0.8308 C.ar    1  UNL1       -0.0131
      9 C           0.0202    0.1744   -1.9026 C.ar    1  UNL1       -0.0532
     10 C          -1.3758    0.1734   -1.7092 C.ar    1  UNL1       -0.0498
     11 C          -1.9128    0.1779   -0.4034 C.ar    1  UNL1        0.0291
     12 C          -1.0122    0.1824    0.6606 C.ar    1  UNL1        0.1446
     13 O          -1.6801    0.1859    1.8441 O.2     1  UNL1       -0.4542
     14 C          -3.0069    0.1834    1.5603 C.ar    1  UNL1        0.1369
     15 C          -4.0075    0.1856    2.5270 C.ar    1  UNL1       -0.0181
     16 C          -5.3256    0.1826    2.0694 C.ar    1  UNL1       -0.0505
     17 C          -5.6279    0.1777    0.7008 C.ar    1  UNL1       -0.0171
     18 C          -6.9636    0.1748    0.2704 C.ar    1  UNL1       -0.0540
     19 C          -7.2798    0.1697   -1.0888 C.ar    1  UNL1       -0.0612
     20 C          -6.2651    0.1674   -2.0400 C.ar    1  UNL1       -0.0611
     21 C          -4.9282    0.1702   -1.6377 C.ar    1  UNL1       -0.0533
     22 C          -4.5850    0.1754   -0.2686 C.ar    1  UNL1       -0.0065
     23 C          -3.2268    0.1785    0.1849 C.ar    1  UNL1        0.0356
     24 C           0.3713    0.1836    0.4879 C.ar    1  UNL1        0.0357
     25 C           4.7832    0.2124   -0.3013 C.ar    1  UNL1        0.0291
     26 C           5.6727    1.1599    0.2283 C.ar    1  UNL1        0.0375
     27 N           7.0311    1.2512    0.0393 N.ar    1  UNL1       -0.2604
     28 C           7.6835    0.3549   -0.7547 C.ar    1  UNL1        0.0557
     29 C           6.9244   -0.6568   -1.3729 C.ar    1  UNL1        0.1185
     30 N           7.3886   -1.6184   -2.1870 N.ar    1  UNL1       -0.1892
     31 S           6.0775   -2.5382   -2.6201 S.2     1  UNL1        0.1165
     32 N           4.8660   -1.7519   -1.8063 N.ar    1  UNL1       -0.1901
     33 C           5.4352   -0.7283   -1.1421 C.ar    1  UNL1        0.1105
     34 H           4.3987    0.1170    2.7965 H       1  UNL1        0.1036
     35 H           0.3588    0.1616    3.5116 H       1  UNL1        0.1036
     36 H           2.6871    0.1794   -2.0988 H       1  UNL1        0.0630
     37 H           0.3940    0.1684   -2.9261 H       1  UNL1        0.0624
     38 H          -2.0199    0.1679   -2.5821 H       1  UNL1        0.0625
     39 H          -3.7684    0.1892    3.5839 H       1  UNL1        0.0655
     40 H          -6.1268    0.1841    2.8067 H       1  UNL1        0.0625
     41 H          -7.7759    0.1763    0.9944 H       1  UNL1        0.0624
     42 H          -8.3203    0.1674   -1.4034 H       1  UNL1        0.0618
     43 H          -6.5132    0.1633   -3.0984 H       1  UNL1        0.0618
     44 H          -4.1668    0.1681   -2.4079 H       1  UNL1        0.0624
     45 H           5.2872    1.9534    0.8715 H       1  UNL1        0.0836
     46 H           8.7530    0.4666   -0.8734 H       1  UNL1        0.0852
@<TRIPOS>BOND
     1     1     2   ar
     2     2     3   ar
     3     3     4   ar
     4     4     5   ar
     5     5     6   ar
     6     6     7   ar
     7     7     8   ar
     8     8     9   ar
     9     9    10   ar
    10    10    11   ar
    11    11    12   ar
    12    12    13   ar
    13    13    14   ar
    14    14    15   ar
    15    15    16   ar
    16    16    17   ar
    17    17    18   ar
    18    18    19   ar
    19    19    20   ar
    20    20    21   ar
    21    21    22   ar
    22    22    23   ar
    23    12    24   ar
    24     6    25    1
    25    25    26   ar
    26    26    27   ar
    27    27    28   ar
    28    28    29   ar
    29    29    30   ar
    30    30    31   ar
    31    31    32   ar
    32    32    33   ar
    33     5     1   ar
    34    24     8   ar
    35    33    25   ar
    36    24     4   ar
    37    33    29   ar
    38    23    11   ar
    39    23    14   ar
    40    22    17   ar
    41     1    34    1
    42     3    35    1
    43     7    36    1
    44     9    37    1
    45    10    38    1
    46    15    39    1
    47    16    40    1
    48    18    41    1
    49    19    42    1
    50    20    43    1
    51    21    44    1
    52    26    45    1
    53    28    46    1
