@<TRIPOS>MOLECULE
*****
 46 53 0 0 0
SMALL
GASTEIGER

@<TRIPOS>ATOM
      1 C          -2.0708    0.2920   -2.6096 C.ar    1  UNL1        0.1000
      2 O          -0.9962    0.5517   -3.4143 O.2     1  UNL1       -0.4698
      3 C           0.1302    0.4422   -2.6458 C.ar    1  UNL1        0.1001
      4 C          -0.2154    0.1157   -1.3599 C.ar    1  UNL1        0.0317
      5 C          -1.6403    0.0245   -1.3352 C.ar    1  UNL1        0.0283
      6 C          -2.4087   -0.2905   -0.2114 C.ar    1  UNL1       -0.0060
      7 C          -1.5728   -0.5221    0.9184 C.ar    1  UNL1       -0.0455
      8 C          -0.1295   -0.4348    0.9252 C.ar    1  UNL1       -0.0131
      9 C           0.5979   -0.6759    2.0980 C.ar    1  UNL1       -0.0532
     10 C           2.0040   -0.5993    2.1395 C.ar    1  UNL1       -0.0498
     11 C           2.7210   -0.2710    0.9731 C.ar    1  UNL1        0.0292
     12 C           2.0003   -0.0287   -0.2031 C.ar    1  UNL1        0.1446
     13 O           2.8413    0.2763   -1.2428 O.2     1  UNL1       -0.4542
     14 C           4.1171    0.2365   -0.7577 C.ar    1  UNL1        0.1369
     15 C           5.2910    0.4881   -1.4939 C.ar    1  UNL1       -0.0181
     16 C           6.5436    0.4085   -0.8510 C.ar    1  UNL1       -0.0500
     17 C           6.4638    0.0736    0.5038 C.ar    1  UNL1       -0.0101
     18 C           7.5862   -0.0491    1.2909 C.ar    1  UNL1       -0.0166
     19 S           7.1876   -0.4704    2.9194 S.2     1  UNL1       -0.1039
     20 C           5.4945   -0.4929    2.5850 C.ar    1  UNL1       -0.0159
     21 C           5.2985   -0.1852    1.2717 C.ar    1  UNL1        0.0005
     22 C           4.0531   -0.0934    0.5804 C.ar    1  UNL1        0.0361
     23 C           0.6092   -0.1011   -0.2552 C.ar    1  UNL1        0.0357
     24 C          -3.8497   -0.3896   -0.1970 C.ar    1  UNL1       -0.0090
     25 C          -4.5502   -1.6211   -0.1134 C.ar    1  UNL1       -0.0534
     26 C          -5.9783   -1.7392   -0.0984 C.ar    1  UNL1       -0.0606
     27 C          -6.8597   -0.6398   -0.1596 C.ar    1  UNL1       -0.0535
     28 C          -6.1726    0.5714   -0.2322 C.ar    1  UNL1       -0.0103
     29 C          -6.8203    1.7804   -0.2925 C.ar    1  UNL1       -0.0166
     30 S          -5.7017    3.0831   -0.3608 S.2     1  UNL1       -0.1039
     31 C          -4.3482    2.0231   -0.3074 C.ar    1  UNL1       -0.0160
     32 C          -4.7347    0.7033   -0.2498 C.ar    1  UNL1       -0.0032
     33 H          -3.0363    0.3413   -3.0938 H       1  UNL1        0.1036
     34 H           1.0622    0.6216   -3.1632 H       1  UNL1        0.1036
     35 H          -2.0704   -0.7797    1.8568 H       1  UNL1        0.0630
     36 H           0.0739   -0.9319    3.0185 H       1  UNL1        0.0624
     37 H           2.5156   -0.7957    3.0762 H       1  UNL1        0.0625
     38 H           5.2259    0.7410   -2.5478 H       1  UNL1        0.0655
     39 H           7.4697    0.5949   -1.3818 H       1  UNL1        0.0625
     40 H           8.6244    0.0814    1.0174 H       1  UNL1        0.0699
     41 H           4.7906   -0.7269    3.3684 H       1  UNL1        0.0700
     42 H          -3.9707   -2.5450   -0.0660 H       1  UNL1        0.0624
     43 H          -6.4059   -2.7408   -0.0374 H       1  UNL1        0.0618
     44 H          -7.9359   -0.7497   -0.1466 H       1  UNL1        0.0624
     45 H          -7.8825    1.9824   -0.2978 H       1  UNL1        0.0699
     46 H          -3.3506    2.4407   -0.3239 H       1  UNL1        0.0700
@<TRIPOS>BOND
     1     1     2   ar
     2     2     3   ar
     3     3     4   ar
     4     4     5   ar
     5     5     6   ar
     6     6     7   ar
     7     7     8   ar
     8     8     9   ar
     9     9    10   ar
    10    10    11   ar
    11    11    12   ar
    12    12    13   ar
    13    13    14   ar
    14    14    15   ar
    15    15    16   ar
    16    16    17   ar
    17    17    18   ar
    18    18    19   ar
    19    19    20   ar
    20    20    21   ar
    21    21    22   ar
    22    12    23   ar
    23     6    24    1
    24    24    25   ar
    25    25    26   ar
    26    26    27   ar
    27    27    28   ar
    28    28    29   ar
    29    29    30   ar
    30    30    31   ar
    31    31    32   ar
    32     5     1   ar
    33    23     8   ar
    34    32    24   ar
    35    23     4   ar
    36    32    28   ar
    37    22    11   ar
    38    22    14   ar
    39    21    17   ar
    40     1    33    1
    41     3    34    1
    42     7    35    1
    43     9    36    1
    44    10    37    1
    45    15    38    1
    46    16    39    1
    47    18    40    1
    48    20    41    1
    49    25    42    1
    50    26    43    1
    51    27    44    1
    52    29    45    1
    53    31    46    1
