@<TRIPOS>MOLECULE
*****
 46 53 0 0 0
SMALL
GASTEIGER

@<TRIPOS>ATOM
      1 C          -3.1547   -0.7463    2.7668 C.ar    1  UNL1        0.1000
      2 O          -2.2210   -0.9699    3.7344 O.2     1  UNL1       -0.4698
      3 C          -0.9907   -0.7735    3.1731 C.ar    1  UNL1        0.1000
      4 C          -1.1209   -0.4221    1.8520 C.ar    1  UNL1        0.0293
      5 C          -2.5346   -0.3905    1.5960 C.ar    1  UNL1        0.0282
      6 C          -3.1366   -0.0856    0.3718 C.ar    1  UNL1       -0.0044
      7 C          -2.1383    0.1840   -0.6026 C.ar    1  UNL1       -0.0441
      8 C          -0.7112    0.1587   -0.3683 C.ar    1  UNL1        0.0026
      9 C           0.1834    0.4378   -1.3873 C.ar    1  UNL1        0.0361
     10 N           1.5252    0.4507   -1.2892 N.ar    1  UNL1       -0.2532
     11 C           2.0672    0.1566   -0.0713 C.ar    1  UNL1        0.0869
     12 C           1.2705   -0.1468    1.0401 C.ar    1  UNL1        0.0471
     13 S           2.2583   -0.4641    2.3999 S.2     1  UNL1       -0.0860
     14 C           3.7191   -0.2080    1.5464 C.ar    1  UNL1        0.0226
     15 C           5.0110   -0.3111    2.0938 C.ar    1  UNL1       -0.0468
     16 C           6.1161   -0.0746    1.2803 C.ar    1  UNL1       -0.0529
     17 C           5.9595    0.2607   -0.0616 C.ar    1  UNL1       -0.0172
     18 C           7.0857    0.4955   -0.8670 C.ar    1  UNL1       -0.0540
     19 C           6.9465    0.8320   -2.2130 C.ar    1  UNL1       -0.0612
     20 C           5.6789    0.9382   -2.7719 C.ar    1  UNL1       -0.0611
     21 C           4.5468    0.7084   -1.9866 C.ar    1  UNL1       -0.0534
     22 C           4.6579    0.3659   -0.6191 C.ar    1  UNL1       -0.0076
     23 C           3.4976    0.1246    0.2091 C.ar    1  UNL1        0.0229
     24 C          -0.1306   -0.1474    0.8961 C.ar    1  UNL1        0.0101
     25 C          -4.5680   -0.0403    0.1276 C.ar    1  UNL1        0.0110
     26 C          -5.4566    0.7828    0.8638 C.ar    1  UNL1       -0.0518
     27 C          -6.8525    0.8429    0.6366 C.ar    1  UNL1       -0.0590
     28 C          -7.4987    0.0880   -0.3540 C.ar    1  UNL1       -0.0335
     29 C          -6.6713   -0.7513   -1.1361 C.ar    1  UNL1        0.1005
     30 N          -7.0910   -1.5461   -2.1322 N.ar    1  UNL1       -0.1908
     31 S          -5.7441   -2.3176   -2.7176 S.2     1  UNL1        0.1165
     32 N          -4.5668   -1.6714   -1.7450 N.ar    1  UNL1       -0.1902
     33 C          -5.1786   -0.8210   -0.9001 C.ar    1  UNL1        0.1076
     34 H          -4.1808   -0.8859    3.0767 H       1  UNL1        0.1036
     35 H          -0.1657   -0.9335    3.8510 H       1  UNL1        0.1036
     36 H          -2.4802    0.4305   -1.6116 H       1  UNL1        0.0630
     37 H          -0.1776    0.6774   -2.3864 H       1  UNL1        0.0836
     38 H           5.1506   -0.5724    3.1397 H       1  UNL1        0.0629
     39 H           7.1097   -0.1579    1.7165 H       1  UNL1        0.0624
     40 H           8.0878    0.4176   -0.4505 H       1  UNL1        0.0624
     41 H           7.8276    1.0104   -2.8235 H       1  UNL1        0.0618
     42 H           5.5644    1.1997   -3.8206 H       1  UNL1        0.0618
     43 H           3.5748    0.8012   -2.4625 H       1  UNL1        0.0624
     44 H          -5.0479    1.4215    1.6500 H       1  UNL1        0.0624
     45 H          -7.4523    1.5093    1.2577 H       1  UNL1        0.0618
     46 H          -8.5680    0.1428   -0.5190 H       1  UNL1        0.0640
@<TRIPOS>BOND
     1     1     2   ar
     2     2     3   ar
     3     3     4   ar
     4     4     5   ar
     5     5     6   ar
     6     6     7   ar
     7     7     8   ar
     8     8     9   ar
     9     9    10   ar
    10    10    11   ar
    11    11    12   ar
    12    12    13   ar
    13    13    14   ar
    14    14    15   ar
    15    15    16   ar
    16    16    17   ar
    17    17    18   ar
    18    18    19   ar
    19    19    20   ar
    20    20    21   ar
    21    21    22   ar
    22    22    23   ar
    23    12    24   ar
    24     6    25    1
    25    25    26   ar
    26    26    27   ar
    27    27    28   ar
    28    28    29   ar
    29    29    30   ar
    30    30    31   ar
    31    31    32   ar
    32    32    33   ar
    33     5     1   ar
    34    24     8   ar
    35    33    25   ar
    36    24     4   ar
    37    33    29   ar
    38    23    11   ar
    39    23    14   ar
    40    22    17   ar
    41     1    34    1
    42     3    35    1
    43     7    36    1
    44     9    37    1
    45    15    38    1
    46    16    39    1
    47    18    40    1
    48    19    41    1
    49    20    42    1
    50    21    43    1
    51    26    44    1
    52    27    45    1
    53    28    46    1
