@<TRIPOS>MOLECULE
*****
 48 55 0 0 0
SMALL
GASTEIGER

@<TRIPOS>ATOM
      1 C          -2.0025   -0.7312   -2.4320 C.ar    1  UNL1        0.1000
      2 O          -1.0768   -1.3677   -3.2056 O.2     1  UNL1       -0.4698
      3 C           0.1438   -1.1994   -2.6117 C.ar    1  UNL1        0.1000
      4 C           0.0159   -0.4601   -1.4615 C.ar    1  UNL1        0.0293
      5 C          -1.3820   -0.1591   -1.3520 C.ar    1  UNL1        0.0282
      6 C          -1.9776    0.5776   -0.3277 C.ar    1  UNL1       -0.0059
      7 C          -1.0023    1.0036    0.6092 C.ar    1  UNL1       -0.0441
      8 C           0.4112    0.7124    0.5215 C.ar    1  UNL1        0.0026
      9 C           1.2922    1.1689    1.4889 C.ar    1  UNL1        0.0361
     10 N           2.6228    0.9649    1.5184 N.ar    1  UNL1       -0.2532
     11 C           3.1556    0.2380    0.4968 C.ar    1  UNL1        0.0869
     12 C           2.3791   -0.2855   -0.5495 C.ar    1  UNL1        0.0471
     13 S           3.3699   -1.1514   -1.6706 S.2     1  UNL1       -0.0860
     14 C           4.8227   -0.8536   -0.8048 C.ar    1  UNL1        0.0226
     15 C           6.1406   -1.2815   -1.1372 C.ar    1  UNL1       -0.0467
     16 C           7.2490   -0.9635   -0.3312 C.ar    1  UNL1       -0.0524
     17 C           6.9090   -0.2091    0.7858 C.ar    1  UNL1       -0.0102
     18 C           7.8587    0.1998    1.6950 C.ar    1  UNL1       -0.0166
     19 S           7.1636    1.1191    2.9812 S.2     1  UNL1       -0.1039
     20 C           5.5755    0.9758    2.3265 C.ar    1  UNL1       -0.0159
     21 C           5.6267    0.2470    1.1730 C.ar    1  UNL1       -0.0006
     22 C           4.5185   -0.1024    0.3167 C.ar    1  UNL1        0.0234
     23 C           0.9913   -0.0475   -0.5399 C.ar    1  UNL1        0.0101
     24 C          -3.4019    0.8775   -0.2383 C.ar    1  UNL1       -0.0095
     25 C          -3.8549    2.1034   -0.7588 C.ar    1  UNL1       -0.0534
     26 C          -5.2006    2.4511   -0.7064 C.ar    1  UNL1       -0.0606
     27 C          -6.1180    1.5780   -0.1297 C.ar    1  UNL1       -0.0540
     28 C          -5.7054    0.3480    0.4028 C.ar    1  UNL1       -0.0173
     29 C          -6.6467   -0.5193    0.9820 C.ar    1  UNL1       -0.0540
     30 C          -6.2590   -1.7461    1.5182 C.ar    1  UNL1       -0.0612
     31 C          -4.9233   -2.1222    1.4830 C.ar    1  UNL1       -0.0611
     32 C          -3.9753   -1.2710    0.9109 C.ar    1  UNL1       -0.0534
     33 C          -4.3361   -0.0196    0.3563 C.ar    1  UNL1       -0.0102
     34 H          -3.0234   -0.7850   -2.7845 H       1  UNL1        0.1036
     35 H           0.9601   -1.6662   -3.1422 H       1  UNL1        0.1036
     36 H          -1.3551    1.5922    1.4599 H       1  UNL1        0.0630
     37 H           0.9286    1.7553    2.3316 H       1  UNL1        0.0836
     38 H           6.2971   -1.8710   -2.0394 H       1  UNL1        0.0629
     39 H           8.2527   -1.2860   -0.5790 H       1  UNL1        0.0624
     40 H           8.9248    0.0189    1.6907 H       1  UNL1        0.0699
     41 H           4.7339    1.4306    2.8295 H       1  UNL1        0.0700
     42 H          -3.1495    2.7954   -1.2162 H       1  UNL1        0.0624
     43 H          -5.5349    3.4009   -1.1156 H       1  UNL1        0.0618
     44 H          -7.1666    1.8673   -0.0985 H       1  UNL1        0.0624
     45 H          -7.6986   -0.2432    1.0199 H       1  UNL1        0.0624
     46 H          -7.0004   -2.4052    1.9619 H       1  UNL1        0.0618
     47 H          -4.6137   -3.0775    1.8987 H       1  UNL1        0.0618
     48 H          -2.9387   -1.6017    0.9019 H       1  UNL1        0.0624
@<TRIPOS>BOND
     1     1     2   ar
     2     2     3   ar
     3     3     4   ar
     4     4     5   ar
     5     5     6   ar
     6     6     7   ar
     7     7     8   ar
     8     8     9   ar
     9     9    10   ar
    10    10    11   ar
    11    11    12   ar
    12    12    13   ar
    13    13    14   ar
    14    14    15   ar
    15    15    16   ar
    16    16    17   ar
    17    17    18   ar
    18    18    19   ar
    19    19    20   ar
    20    20    21   ar
    21    21    22   ar
    22    12    23   ar
    23     6    24    1
    24    24    25   ar
    25    25    26   ar
    26    26    27   ar
    27    27    28   ar
    28    28    29   ar
    29    29    30   ar
    30    30    31   ar
    31    31    32   ar
    32    32    33   ar
    33     5     1   ar
    34    23     8   ar
    35    33    24   ar
    36    23     4   ar
    37    33    28   ar
    38    22    11   ar
    39    22    14   ar
    40    21    17   ar
    41     1    34    1
    42     3    35    1
    43     7    36    1
    44     9    37    1
    45    15    38    1
    46    16    39    1
    47    18    40    1
    48    20    41    1
    49    25    42    1
    50    26    43    1
    51    27    44    1
    52    29    45    1
    53    30    46    1
    54    31    47    1
    55    32    48    1
