@<TRIPOS>MOLECULE
*****
 40 46 0 0 0
SMALL
GASTEIGER

@<TRIPOS>ATOM
      1 C          -2.6490   -0.7360   -1.0988 C.ar    1  UNL1        0.1000
      2 O          -2.1339   -0.8078   -2.3606 O.2     1  UNL1       -0.4698
      3 C          -0.7949   -0.5460   -2.2753 C.ar    1  UNL1        0.1001
      4 C          -0.4439   -0.3095   -0.9704 C.ar    1  UNL1        0.0302
      5 C          -1.6493   -0.4480   -0.2046 C.ar    1  UNL1        0.0283
      6 C          -1.7576   -0.2834    1.1805 C.ar    1  UNL1       -0.0044
      7 C          -0.4896    0.0529    1.7328 C.ar    1  UNL1       -0.0440
      8 C           0.7400    0.1967    0.9841 C.ar    1  UNL1        0.0035
      9 C           1.9395    0.5264    1.6110 C.ar    1  UNL1        0.0362
     10 N           3.1455    0.6817    1.0214 N.ar    1  UNL1       -0.2507
     11 C           3.1715    0.4993   -0.3253 C.ar    1  UNL1        0.1150
     12 C           4.2713    0.5916   -1.2296 C.ar    1  UNL1        0.1143
     13 N           5.5789    0.8824   -0.9936 N.ar    1  UNL1       -0.2513
     14 C           6.3696    0.8891   -2.0850 C.ar    1  UNL1        0.0285
     15 C           5.9553    0.6285   -3.3833 C.ar    1  UNL1       -0.0416
     16 C           4.6175    0.3302   -3.6252 C.ar    1  UNL1       -0.0348
     17 C           3.7842    0.3192   -2.5062 C.ar    1  UNL1        0.0676
     18 N           2.4384    0.0704   -2.3807 N.ar    1  UNL1       -0.3512
     19 C           2.0349    0.1697   -1.0702 C.ar    1  UNL1        0.0760
     20 C           0.8045    0.0122   -0.4281 C.ar    1  UNL1        0.0198
     21 C          -2.9800   -0.4413    1.9488 C.ar    1  UNL1        0.0110
     22 C          -3.7427   -1.6358    1.9581 C.ar    1  UNL1       -0.0518
     23 C          -4.9330   -1.8090    2.7046 C.ar    1  UNL1       -0.0590
     24 C          -5.4768   -0.8046    3.5197 C.ar    1  UNL1       -0.0335
     25 C          -4.7621    0.4152    3.5658 C.ar    1  UNL1        0.1005
     26 N          -5.1107    1.4934    4.2842 N.ar    1  UNL1       -0.1908
     27 S          -3.9549    2.6471    3.9916 S.2     1  UNL1        0.1165
     28 N          -2.9577    1.8320    2.9474 N.ar    1  UNL1       -0.1902
     29 C          -3.4892    0.6083    2.7717 C.ar    1  UNL1        0.1076
     30 H          -3.7136   -0.9081   -1.0252 H       1  UNL1        0.1036
     31 H          -0.2806   -0.5669   -3.2228 H       1  UNL1        0.1036
     32 H          -0.4424    0.2158    2.8130 H       1  UNL1        0.0630
     33 H           1.9682    0.6870    2.6877 H       1  UNL1        0.0836
     34 H           7.4119    1.1238   -1.8815 H       1  UNL1        0.0830
     35 H           6.6706    0.6584   -4.1988 H       1  UNL1        0.0633
     36 H           4.2526    0.1209   -4.6241 H       1  UNL1        0.0639
     37 H           1.8372   -0.1542   -3.1574 H       1  UNL1        0.1660
     38 H          -3.3932   -2.4839    1.3655 H       1  UNL1        0.0624
     39 H          -5.4484   -2.7685    2.6467 H       1  UNL1        0.0618
     40 H          -6.3882   -0.9491    4.0874 H       1  UNL1        0.0640
@<TRIPOS>BOND
     1     1     2   ar
     2     2     3   ar
     3     3     4   ar
     4     4     5   ar
     5     5     6   ar
     6     6     7   ar
     7     7     8   ar
     8     8     9   ar
     9     9    10   ar
    10    10    11   ar
    11    11    12   ar
    12    12    13   ar
    13    13    14   ar
    14    14    15   ar
    15    15    16   ar
    16    16    17   ar
    17    17    18   ar
    18    18    19   ar
    19    19    20   ar
    20     6    21    1
    21    21    22   ar
    22    22    23   ar
    23    23    24   ar
    24    24    25   ar
    25    25    26   ar
    26    26    27   ar
    27    27    28   ar
    28    28    29   ar
    29     5     1   ar
    30    20     8   ar
    31    29    21   ar
    32    20     4   ar
    33    29    25   ar
    34    19    11   ar
    35    17    12   ar
    36     1    30    1
    37     3    31    1
    38     7    32    1
    39     9    33    1
    40    14    34    1
    41    15    35    1
    42    16    36    1
    43    18    37    1
    44    22    38    1
    45    23    39    1
    46    24    40    1
