@<TRIPOS>MOLECULE
*****
 39 45 0 0 0
SMALL
GASTEIGER

@<TRIPOS>ATOM
      1 C          -2.8357   -1.3546    2.1138 C.ar    1  UNL1        0.1000
      2 O          -2.0641   -2.0173    3.0372 O.2     1  UNL1       -0.4698
      3 C          -0.7535   -1.8328    2.6891 C.ar    1  UNL1        0.1001
      4 C          -0.7416   -1.0672    1.5683 C.ar    1  UNL1        0.0319
      5 C          -2.0546   -0.7342    1.1595 C.ar    1  UNL1        0.0298
      6 C          -2.4612    0.0430    0.0469 C.ar    1  UNL1        0.0146
      7 C          -1.3208    0.4996   -0.6892 C.ar    1  UNL1       -0.0088
      8 C          -0.0058    0.1730   -0.2900 C.ar    1  UNL1        0.1377
      9 O           1.1500    0.5514   -0.9125 O.2     1  UNL1       -0.4540
     10 C           2.1952    0.0189   -0.1958 C.ar    1  UNL1        0.1490
     11 C           1.7230   -0.7103    0.8990 C.ar    1  UNL1        0.0474
     12 C           2.6575   -1.3176    1.7317 C.ar    1  UNL1        0.0396
     13 N           3.9885   -1.1963    1.4749 N.ar    1  UNL1       -0.2541
     14 C           4.4336   -0.4941    0.4210 C.ar    1  UNL1        0.0767
     15 C           5.8205   -0.4139    0.2209 C.ar    1  UNL1       -0.0335
     16 C           6.4507    0.2815   -0.8339 C.ar    1  UNL1       -0.0315
     17 C           5.5919    0.9377   -1.7427 C.ar    1  UNL1        0.1007
     18 N           5.9786    1.6513   -2.8098 N.ar    1  UNL1       -0.1908
     19 S           4.5894    2.2020   -3.5325 S.2     1  UNL1        0.1165
     20 N           3.4409    1.5595   -2.5239 N.ar    1  UNL1       -0.1900
     21 C           4.0949    0.8784   -1.5666 C.ar    1  UNL1        0.1126
     22 C           3.5498    0.1544   -0.4749 C.ar    1  UNL1        0.0713
     23 C           0.3387   -0.5869    0.8011 C.ar    1  UNL1        0.0401
     24 C          -3.8601    0.3536   -0.3239 C.ar    1  UNL1        0.0718
     25 C          -4.2026    1.1282   -1.4368 C.ar    1  UNL1       -0.0357
     26 C          -5.5445    1.3824   -1.7284 C.ar    1  UNL1       -0.0583
     27 C          -6.5301    0.8613   -0.9072 C.ar    1  UNL1       -0.0436
     28 C          -6.1271    0.1057    0.1742 C.ar    1  UNL1        0.0283
     29 N          -4.8331   -0.1516    0.4733 N.ar    1  UNL1       -0.2550
     30 H          -3.8992   -1.4324    2.2910 H       1  UNL1        0.1036
     31 H          -0.0249   -2.3024    3.3325 H       1  UNL1        0.1036
     32 H          -1.4304    1.1117   -1.5781 H       1  UNL1        0.0661
     33 H           2.3943   -1.9036    2.6048 H       1  UNL1        0.0837
     34 H           6.4608   -0.9306    0.9387 H       1  UNL1        0.0640
     35 H           7.5282    0.3114   -0.9421 H       1  UNL1        0.0640
     36 H          -3.4521    1.5482   -2.0960 H       1  UNL1        0.0639
     37 H          -5.8110    1.9841   -2.5929 H       1  UNL1        0.0619
     38 H          -7.5810    1.0384   -1.1035 H       1  UNL1        0.0633
     39 H          -6.8531   -0.3299    0.8548 H       1  UNL1        0.0830
@<TRIPOS>BOND
     1     1     2   ar
     2     2     3   ar
     3     3     4   ar
     4     4     5   ar
     5     5     6   ar
     6     6     7   ar
     7     7     8   ar
     8     8     9   ar
     9     9    10   ar
    10    10    11   ar
    11    11    12   ar
    12    12    13   ar
    13    13    14   ar
    14    14    15   ar
    15    15    16   ar
    16    16    17   ar
    17    17    18   ar
    18    18    19   ar
    19    19    20   ar
    20    20    21   ar
    21    21    22   ar
    22    11    23   ar
    23     6    24    1
    24    24    25   ar
    25    25    26   ar
    26    26    27   ar
    27    27    28   ar
    28    28    29   ar
    29     5     1   ar
    30    23     8   ar
    31    29    24   ar
    32    23     4   ar
    33    22    10   ar
    34    22    14   ar
    35    21    17   ar
    36     1    30    1
    37     3    31    1
    38     7    32    1
    39    12    33    1
    40    15    34    1
    41    16    35    1
    42    25    36    1
    43    26    37    1
    44    27    38    1
    45    28    39    1
