@<TRIPOS>MOLECULE
*****
 41 47 0 0 0
SMALL
GASTEIGER

@<TRIPOS>ATOM
      1 SI         -6.0457    1.6979   -1.5310 Si      1  UNL1        0.0000
      2 C          -6.5646    0.5471   -0.1681 C.2     1  UNL1        0.0000
      3 C          -5.4992   -0.0450    0.4032 C.ar    1  UNL1        0.0000
      4 C          -5.6114   -0.9878    1.4898 C.ar    1  UNL1        0.0000
      5 C          -4.5029   -1.5358    2.0070 C.ar    1  UNL1        0.0000
      6 C          -3.1537   -1.2105    1.5041 C.ar    1  UNL1        0.0000
      7 N          -2.1693   -1.8818    2.1739 N.ar    1  UNL1        0.0000
      8 C          -0.8962   -1.6584    1.7943 C.ar    1  UNL1        0.0000
      9 C          -0.5723   -0.7928    0.7746 C.ar    1  UNL1        0.0000
     10 C          -1.6125   -0.0930    0.0776 C.ar    1  UNL1        0.0000
     11 SI         -0.7718    1.0168   -1.2729 Si      1  UNL1        0.0000
     12 C           0.9128    0.4144   -0.7497 C.ar    1  UNL1        0.0000
     13 C           2.2594    0.5595   -1.0585 C.ar    1  UNL1        0.0000
     14 C           2.9478   -0.2684   -0.1749 C.ar    1  UNL1        0.0000
     15 N           2.0057   -0.8999    0.6313 N.ar    1  UNL1        0.0000
     16 C           0.7583   -0.4767    0.2831 C.ar    1  UNL1        0.0000
     17 C           4.3545   -0.5218   -0.0308 C.ar    1  UNL1        0.0000
     18 S           4.9627   -1.9862    0.6727 S.2     1  UNL1        0.0000
     19 C           6.6065   -1.5305    0.4653 C.ar    1  UNL1        0.0000
     20 C           6.6278   -0.3053   -0.1018 C.ar    1  UNL1        0.0000
     21 C           7.6859    0.5538   -0.4809 C.ar    1  UNL1        0.0000
     22 C           7.2262    1.7556   -1.0281 C.ar    1  UNL1        0.0000
     23 S           5.4834    1.9496   -1.1269 S.2     1  UNL1        0.0000
     24 C           5.3994    0.2944   -0.3908 C.ar    1  UNL1        0.0000
     25 C          -2.9490   -0.2913    0.4352 C.ar    1  UNL1        0.0000
     26 C          -4.1709    0.3304   -0.1547 C.ar    1  UNL1        0.0000
     27 C          -4.2634    1.2233   -1.1637 C.2     1  UNL1        0.0000
     28 H          -6.3173    3.1214   -1.2193 H       1  UNL1        0.0000
     29 H          -6.4784    1.2369   -2.8718 H       1  UNL1        0.0000
     30 H          -7.6029    0.4100    0.0898 H       1  UNL1        0.0000
     31 H          -6.5909   -1.2446    1.8784 H       1  UNL1        0.0000
     32 H          -4.5566   -2.2470    2.8238 H       1  UNL1        0.0000
     33 H          -0.1446   -2.2084    2.3486 H       1  UNL1        0.0000
     34 H          -1.1696    0.5878   -2.6391 H       1  UNL1        0.0000
     35 H          -1.0099    2.4587   -1.0025 H       1  UNL1        0.0000
     36 H           2.6961    1.1764   -1.8324 H       1  UNL1        0.0000
     37 H           2.2341   -1.5648    1.3576 H       1  UNL1        0.0000
     38 H           7.4192   -2.1735    0.7722 H       1  UNL1        0.0000
     39 H           8.7403    0.3330   -0.3683 H       1  UNL1        0.0000
     40 H           7.8325    2.5745   -1.3911 H       1  UNL1        0.0000
     41 H          -3.4997    1.6816   -1.7604 H       1  UNL1        0.0000
@<TRIPOS>BOND
     1     1     2    1
     2     2     3    2
     3     3     4   ar
     4     4     5   ar
     5     5     6   ar
     6     6     7   ar
     7     7     8   ar
     8     8     9   ar
     9     9    10   ar
    10    10    11    1
    11    11    12    1
    12    12    13   ar
    13    13    14   ar
    14    14    15   ar
    15    15    16   ar
    16    14    17    1
    17    17    18   ar
    18    18    19   ar
    19    19    20   ar
    20    20    21   ar
    21    21    22   ar
    22    22    23   ar
    23    23    24   ar
    24    10    25   ar
    25    25    26   ar
    26    26    27    2
    27    27     1    1
    28    26     3   ar
    29    25     6   ar
    30     9    16    1
    31    24    17   ar
    32    16    12   ar
    33    24    20   ar
    34     1    28    1
    35     1    29    1
    36     2    30    1
    37     4    31    1
    38     5    32    1
    39     8    33    1
    40    11    34    1
    41    11    35    1
    42    13    36    1
    43    15    37    1
    44    19    38    1
    45    21    39    1
    46    22    40    1
    47    27    41    1
