@<TRIPOS>MOLECULE
*****
 40 47 0 0 0
SMALL
GASTEIGER

@<TRIPOS>ATOM
      1 C          -2.7365   -2.6093   -0.0695 C.ar    1  UNL1        0.1000
      2 O          -1.9605   -3.7383    0.0542 O.2     1  UNL1       -0.4698
      3 C          -0.6475   -3.3399    0.0687 C.ar    1  UNL1        0.1002
      4 C          -0.6414   -1.9878   -0.0424 C.ar    1  UNL1        0.0333
      5 C          -1.9504   -1.4787   -0.1375 C.ar    1  UNL1        0.0299
      6 C          -2.3592   -0.1355   -0.2530 C.ar    1  UNL1        0.0167
      7 C          -1.2429    0.7543   -0.2778 C.ar    1  UNL1       -0.0087
      8 C           0.0770    0.2575   -0.1875 C.ar    1  UNL1        0.1392
      9 O           1.2336    0.9920   -0.2008 O.2     1  UNL1       -0.4525
     10 C           2.2759    0.1032   -0.0885 C.ar    1  UNL1        0.1642
     11 C           1.8037   -1.2095   -0.0033 C.ar    1  UNL1        0.1180
     12 N           2.6109   -2.2926    0.1152 N.ar    1  UNL1       -0.2505
     13 C           3.9361   -2.0032    0.1456 C.ar    1  UNL1        0.0363
     14 C           4.5212   -0.7330    0.0681 C.ar    1  UNL1        0.0060
     15 C           5.9320   -0.5540    0.1106 C.ar    1  UNL1       -0.0503
     16 C           6.5629    0.7035    0.0359 C.ar    1  UNL1       -0.0329
     17 C           5.7149    1.8301   -0.0882 C.ar    1  UNL1        0.1006
     18 N           6.1220    3.1051   -0.1735 N.ar    1  UNL1       -0.1908
     19 S           4.7478    4.0276   -0.3024 S.2     1  UNL1        0.1165
     20 N           3.5797    2.8525   -0.2563 N.ar    1  UNL1       -0.1900
     21 C           4.2123    1.6728   -0.1362 C.ar    1  UNL1        0.1112
     22 C           3.6395    0.3765   -0.0557 C.ar    1  UNL1        0.0561
     23 C           0.4255   -1.0695   -0.0706 C.ar    1  UNL1        0.0569
     24 C          -3.7479    0.2880   -0.3493 C.ar    1  UNL1        0.0998
     25 N          -4.6199   -0.4588   -1.1098 N.ar    1  UNL1       -0.2527
     26 C          -5.9349   -0.1057   -1.2587 C.ar    1  UNL1        0.0304
     27 C          -6.5787    0.9924   -0.7028 C.ar    1  UNL1       -0.0153
     28 C          -5.7348    1.7903    0.0903 C.ar    1  UNL1        0.1034
     29 N          -6.1103    2.9033    0.7401 N.ar    1  UNL1       -0.1907
     30 S          -4.7646    3.4658    1.5302 S.2     1  UNL1        0.1165
     31 N          -3.6458    2.3278    1.0816 N.ar    1  UNL1       -0.1886
     32 C          -4.2792    1.4471    0.2840 C.ar    1  UNL1        0.1257
     33 H          -3.8017   -2.7936   -0.0945 H       1  UNL1        0.1036
     34 H           0.0936   -4.1207    0.1629 H       1  UNL1        0.1036
     35 H          -1.3891    1.8272   -0.3749 H       1  UNL1        0.0661
     36 H           4.5637   -2.8892    0.2413 H       1  UNL1        0.0836
     37 H           6.5754   -1.4310    0.2064 H       1  UNL1        0.0625
     38 H           7.6409    0.8110    0.0707 H       1  UNL1        0.0640
     39 H          -6.4990   -0.7908   -1.8922 H       1  UNL1        0.0830
     40 H          -7.6243    1.2131   -0.8612 H       1  UNL1        0.0655
@<TRIPOS>BOND
     1     1     2   ar
     2     2     3   ar
     3     3     4   ar
     4     4     5   ar
     5     5     6   ar
     6     6     7   ar
     7     7     8   ar
     8     8     9   ar
     9     9    10   ar
    10    10    11   ar
    11    11    12   ar
    12    12    13   ar
    13    13    14   ar
    14    14    15   ar
    15    15    16   ar
    16    16    17   ar
    17    17    18   ar
    18    18    19   ar
    19    19    20   ar
    20    20    21   ar
    21    21    22   ar
    22    11    23   ar
    23     6    24    1
    24    24    25   ar
    25    25    26   ar
    26    26    27   ar
    27    27    28   ar
    28    28    29   ar
    29    29    30   ar
    30    30    31   ar
    31    31    32   ar
    32     5     1   ar
    33    23     8   ar
    34    32    24   ar
    35    23     4   ar
    36    32    28   ar
    37    22    10   ar
    38    22    14   ar
    39    21    17   ar
    40     1    33    1
    41     3    34    1
    42     7    35    1
    43    13    36    1
    44    15    37    1
    45    16    38    1
    46    26    39    1
    47    27    40    1
