@<TRIPOS>MOLECULE
*****
 40 47 0 0 0
SMALL
GASTEIGER

@<TRIPOS>ATOM
      1 C          -2.4718   -1.4661    1.8291 C.ar    1  UNL1        0.1000
      2 O          -1.6036   -2.0674    2.6906 O.2     1  UNL1       -0.4698
      3 C          -0.3365   -1.7595    2.2733 C.ar    1  UNL1        0.1000
      4 C          -0.4150   -0.9782    1.1585 C.ar    1  UNL1        0.0293
      5 C          -1.7864   -0.7707    0.8574 C.ar    1  UNL1        0.0297
      6 C          -2.3695   -0.0161   -0.1605 C.ar    1  UNL1        0.0143
      7 C          -1.3699    0.5922   -0.9477 C.ar    1  UNL1       -0.0374
      8 C           0.0303    0.4263   -0.7079 C.ar    1  UNL1        0.0219
      9 S           1.2833    1.1602   -1.6273 S.2     1  UNL1       -0.0875
     10 C           2.5539    0.4405   -0.6923 C.ar    1  UNL1        0.0318
     11 C           1.9938   -0.3607    0.3036 C.ar    1  UNL1        0.0264
     12 C           2.9252   -1.0736    1.1549 C.ar    1  UNL1        0.1093
     13 N           2.5563   -1.9034    2.1135 N.ar    1  UNL1       -0.1901
     14 S           3.9861   -2.4465    2.7698 S.2     1  UNL1        0.1165
     15 N           5.0739   -1.6218    1.8178 N.ar    1  UNL1       -0.1901
     16 C           4.3570   -0.8885    0.9387 C.ar    1  UNL1        0.1083
     17 C           4.9012   -0.0473   -0.0688 C.ar    1  UNL1        0.0143
     18 C           6.2827    0.1297   -0.2692 C.ar    1  UNL1       -0.0337
     19 C           6.6882    0.9684   -1.2893 C.ar    1  UNL1        0.0282
     20 N           5.8337    1.6243   -2.1022 N.ar    1  UNL1       -0.2626
     21 C           4.5070    1.4371   -1.8896 C.ar    1  UNL1        0.0364
     22 C           3.9686    0.6149   -0.8889 C.ar    1  UNL1        0.0167
     23 C           0.5769   -0.3506    0.3093 C.ar    1  UNL1        0.0098
     24 C          -3.7994    0.1264   -0.3837 C.ar    1  UNL1        0.0997
     25 N          -4.6051   -0.9846   -0.2737 N.ar    1  UNL1       -0.2527
     26 C          -5.9562   -0.9223   -0.4906 C.ar    1  UNL1        0.0304
     27 C          -6.7016    0.1982   -0.8350 C.ar    1  UNL1       -0.0153
     28 C          -5.9274    1.3656   -0.9599 C.ar    1  UNL1        0.1034
     29 N          -6.4041    2.5786   -1.2813 N.ar    1  UNL1       -0.1907
     30 S          -5.1049    3.6098   -1.2910 S.2     1  UNL1        0.1165
     31 N          -3.8791    2.5652   -0.8969 N.ar    1  UNL1       -0.1886
     32 C          -4.4367    1.3501   -0.7342 C.ar    1  UNL1        0.1257
     33 H          -3.5178   -1.6287    2.0501 H       1  UNL1        0.1036
     34 H           0.4325   -2.1767    2.9001 H       1  UNL1        0.1036
     35 H          -1.6704    1.2185   -1.7889 H       1  UNL1        0.0636
     36 H           7.0153   -0.3743    0.3529 H       1  UNL1        0.0639
     37 H           7.7424    1.1408   -1.4879 H       1  UNL1        0.0830
     38 H           3.8771    1.9942   -2.5784 H       1  UNL1        0.0836
     39 H          -6.4598   -1.8817   -0.3688 H       1  UNL1        0.0830
     40 H          -7.7703    0.1774   -0.9914 H       1  UNL1        0.0655
@<TRIPOS>BOND
     1     1     2   ar
     2     2     3   ar
     3     3     4   ar
     4     4     5   ar
     5     5     6   ar
     6     6     7   ar
     7     7     8   ar
     8     8     9   ar
     9     9    10   ar
    10    10    11   ar
    11    11    12   ar
    12    12    13   ar
    13    13    14   ar
    14    14    15   ar
    15    15    16   ar
    16    16    17   ar
    17    17    18   ar
    18    18    19   ar
    19    19    20   ar
    20    20    21   ar
    21    21    22   ar
    22    11    23   ar
    23     6    24    1
    24    24    25   ar
    25    25    26   ar
    26    26    27   ar
    27    27    28   ar
    28    28    29   ar
    29    29    30   ar
    30    30    31   ar
    31    31    32   ar
    32     5     1   ar
    33    23     8   ar
    34    32    24   ar
    35    23     4   ar
    36    32    28   ar
    37    22    10   ar
    38    16    12   ar
    39    22    17   ar
    40     1    33    1
    41     3    34    1
    42     7    35    1
    43    18    36    1
    44    19    37    1
    45    21    38    1
    46    26    39    1
    47    27    40    1
