@<TRIPOS>MOLECULE
*****
 48 55 0 0 0
SMALL
GASTEIGER

@<TRIPOS>ATOM
      1 C           2.0791    2.2672    0.4499 C.ar    1  UNL1        0.1000
      2 O           1.2136    3.3204    0.5634 O.2     1  UNL1       -0.4698
      3 C          -0.0538    2.8080    0.5158 C.ar    1  UNL1        0.1000
      4 C          -0.0159    1.4367    0.3806 C.ar    1  UNL1        0.0282
      5 C           1.3491    1.1297    0.2745 C.ar    1  UNL1        0.0293
      6 C           1.7482   -0.2448    0.1390 C.ar    1  UNL1        0.0088
      7 C           0.7174   -1.1762    0.3032 C.ar    1  UNL1        0.0295
      8 S           1.4873   -2.7092    0.4874 S.2     1  UNL1       -0.0876
      9 C           3.0723   -2.0969    0.2592 C.ar    1  UNL1        0.0211
     10 C           4.2550   -2.8495    0.3752 C.ar    1  UNL1       -0.0468
     11 C           5.4736   -2.2501    0.0740 C.ar    1  UNL1       -0.0529
     12 C           5.5221   -0.9572   -0.4357 C.ar    1  UNL1       -0.0172
     13 C           6.7508   -0.4134   -0.8441 C.ar    1  UNL1       -0.0540
     14 C           6.8127    0.8370   -1.4558 C.ar    1  UNL1       -0.0612
     15 C           5.6428    1.5457   -1.6923 C.ar    1  UNL1       -0.0611
     16 C           4.4151    1.0249   -1.2752 C.ar    1  UNL1       -0.0534
     17 C           4.3259   -0.2046   -0.5833 C.ar    1  UNL1       -0.0091
     18 C           3.0738   -0.7462   -0.1006 C.ar    1  UNL1        0.0053
     19 C          -0.6796   -0.8140    0.3622 C.ar    1  UNL1        0.0054
     20 C          -1.8061   -1.6799    0.4179 C.ar    1  UNL1       -0.0015
     21 C          -1.7763   -3.0564    0.3644 C.ar    1  UNL1       -0.0160
     22 S          -3.3318   -3.7753    0.4684 S.2     1  UNL1       -0.1038
     23 C          -4.0989   -2.2523    0.5565 C.ar    1  UNL1       -0.0160
     24 C          -3.1934   -1.2156    0.4998 C.ar    1  UNL1       -0.0025
     25 C          -3.5926    0.1322    0.5323 C.ar    1  UNL1       -0.0076
     26 C          -2.4912    1.0085    0.4774 C.ar    1  UNL1       -0.0449
     27 C          -1.1177    0.5674    0.3940 C.ar    1  UNL1       -0.0049
     28 C          -4.9707    0.5920    0.6075 C.ar    1  UNL1        0.0008
     29 C          -5.8113    0.5811   -0.5112 C.ar    1  UNL1       -0.0511
     30 C          -7.1231    1.0378   -0.4032 C.ar    1  UNL1       -0.0430
     31 C          -7.5585    1.4989    0.8276 C.ar    1  UNL1        0.0276
     32 N          -6.7833    1.5318    1.9317 N.ar    1  UNL1       -0.2627
     33 C          -5.5134    1.0796    1.7954 C.ar    1  UNL1        0.0353
     34 H           3.1244    2.5222    0.5432 H       1  UNL1        0.1036
     35 H          -0.8396    3.5421    0.6258 H       1  UNL1        0.1036
     36 H           4.2216   -3.8883    0.6932 H       1  UNL1        0.0629
     37 H           6.3826   -2.8389    0.1806 H       1  UNL1        0.0624
     38 H           7.6740   -0.9742   -0.7116 H       1  UNL1        0.0624
     39 H           7.7696    1.2389   -1.7783 H       1  UNL1        0.0618
     40 H           5.6785    2.4981   -2.2153 H       1  UNL1        0.0618
     41 H           3.5200    1.5735   -1.5514 H       1  UNL1        0.0624
     42 H          -0.9480   -3.7367    0.2670 H       1  UNL1        0.0700
     43 H          -5.1768   -2.2115    0.6390 H       1  UNL1        0.0700
     44 H          -2.6995    2.0787    0.4955 H       1  UNL1        0.0630
     45 H          -5.4466    0.2185   -1.4697 H       1  UNL1        0.0625
     46 H          -7.7879    1.0354   -1.2597 H       1  UNL1        0.0633
     47 H          -8.5722    1.8657    0.9620 H       1  UNL1        0.0829
     48 H          -4.9214    1.1190    2.7069 H       1  UNL1        0.0836
@<TRIPOS>BOND
     1     1     2   ar
     2     2     3   ar
     3     3     4   ar
     4     4     5   ar
     5     5     6   ar
     6     6     7   ar
     7     7     8   ar
     8     8     9   ar
     9     9    10   ar
    10    10    11   ar
    11    11    12   ar
    12    12    13   ar
    13    13    14   ar
    14    14    15   ar
    15    15    16   ar
    16    16    17   ar
    17    17    18   ar
    18     7    19   ar
    19    19    20   ar
    20    20    21   ar
    21    21    22   ar
    22    22    23   ar
    23    23    24   ar
    24    24    25   ar
    25    25    26   ar
    26    26    27   ar
    27    25    28    1
    28    28    29   ar
    29    29    30   ar
    30    30    31   ar
    31    31    32   ar
    32    32    33   ar
    33     5     1   ar
    34    18     6   ar
    35    27    19   ar
    36    33    28   ar
    37    27     4   ar
    38    18     9   ar
    39    24    20   ar
    40    17    12   ar
    41     1    34    1
    42     3    35    1
    43    10    36    1
    44    11    37    1
    45    13    38    1
    46    14    39    1
    47    15    40    1
    48    16    41    1
    49    21    42    1
    50    23    43    1
    51    26    44    1
    52    29    45    1
    53    30    46    1
    54    31    47    1
    55    33    48    1
