@<TRIPOS>MOLECULE
*****
 40 46 0 0 0
SMALL
GASTEIGER

@<TRIPOS>ATOM
      1 C          -0.8614   -2.9952   -0.0349 C.ar    1  UNL1        0.1000
      2 O          -1.9244   -3.8599   -0.0297 O.2     1  UNL1       -0.4698
      3 C          -3.0670   -3.1038   -0.0418 C.ar    1  UNL1        0.1000
      4 C          -2.7602   -1.7603   -0.0547 C.ar    1  UNL1        0.0282
      5 C          -1.3561   -1.7272   -0.0500 C.ar    1  UNL1        0.0297
      6 C          -0.7475   -0.4422   -0.0612 C.ar    1  UNL1        0.0148
      7 C           0.6518   -0.2884   -0.0577 C.ar    1  UNL1        0.0354
      8 S           2.0913   -1.2629   -0.0423 S.2     1  UNL1       -0.0871
      9 C           3.1148    0.1284   -0.0531 C.ar    1  UNL1        0.0210
     10 C           2.3685    1.2954   -0.0680 C.ar    1  UNL1       -0.0326
     11 C           0.9644    1.0401   -0.0704 C.ar    1  UNL1        0.0282
     12 S          -0.4562    2.0621   -0.0863 S.2     1  UNL1       -0.0870
     13 C          -1.5364    0.6981   -0.0760 C.ar    1  UNL1        0.0300
     14 C          -2.9716    0.6039   -0.0802 C.ar    1  UNL1        0.0054
     15 C          -3.9148    1.6638   -0.0947 C.ar    1  UNL1       -0.0021
     16 C          -3.6367    3.0128   -0.1078 C.ar    1  UNL1       -0.0160
     17 S          -5.0501    3.9942   -0.1232 S.2     1  UNL1       -0.1039
     18 C          -6.0789    2.6284   -0.1127 C.ar    1  UNL1       -0.0166
     19 C          -5.3567    1.4600   -0.0979 C.ar    1  UNL1       -0.0102
     20 C          -6.0067    0.2286   -0.0873 C.ar    1  UNL1       -0.0529
     21 C          -5.1041   -0.8456   -0.0728 C.ar    1  UNL1       -0.0527
     22 C          -3.6673   -0.6806   -0.0693 C.ar    1  UNL1       -0.0055
     23 C           4.5971   -0.0159   -0.0462 C.ar    1  UNL1       -0.0113
     24 C           5.2411   -1.2667   -0.0307 C.ar    1  UNL1       -0.0535
     25 C           6.6375   -1.3719   -0.0245 C.ar    1  UNL1       -0.0612
     26 C           7.4252   -0.2268   -0.0338 C.ar    1  UNL1       -0.0617
     27 C           6.8171    1.0227   -0.0492 C.ar    1  UNL1       -0.0612
     28 C           5.4208    1.1252   -0.0553 C.ar    1  UNL1       -0.0535
     29 H           0.1120   -3.4621   -0.0265 H       1  UNL1        0.1036
     30 H          -3.9842   -3.6756   -0.0391 H       1  UNL1        0.1036
     31 H           2.7815    2.2953   -0.0769 H       1  UNL1        0.0640
     32 H          -2.6946    3.5336   -0.1098 H       1  UNL1        0.0700
     33 H          -7.1521    2.7622   -0.1180 H       1  UNL1        0.0699
     34 H          -7.0800    0.0884   -0.0898 H       1  UNL1        0.0624
     35 H          -5.5264   -1.8496   -0.0639 H       1  UNL1        0.0624
     36 H           4.6753   -2.1946   -0.0229 H       1  UNL1        0.0624
     37 H           7.1050   -2.3534   -0.0125 H       1  UNL1        0.0618
     38 H           8.5088   -0.3083   -0.0290 H       1  UNL1        0.0618
     39 H           7.4261    1.9233   -0.0565 H       1  UNL1        0.0618
     40 H           4.9952    2.1246   -0.0674 H       1  UNL1        0.0624
@<TRIPOS>BOND
     1     1     2   ar
     2     2     3   ar
     3     3     4   ar
     4     4     5   ar
     5     5     6   ar
     6     6     7   ar
     7     7     8   ar
     8     8     9   ar
     9     9    10   ar
    10    10    11   ar
    11    11    12   ar
    12    12    13   ar
    13    13    14   ar
    14    14    15   ar
    15    15    16   ar
    16    16    17   ar
    17    17    18   ar
    18    18    19   ar
    19    19    20   ar
    20    20    21   ar
    21    21    22   ar
    22     9    23    1
    23    23    24   ar
    24    24    25   ar
    25    25    26   ar
    26    26    27   ar
    27    27    28   ar
    28     5     1   ar
    29    13     6   ar
    30    22    14   ar
    31    28    23   ar
    32    22     4   ar
    33    11     7   ar
    34    19    15   ar
    35     1    29    1
    36     3    30    1
    37    10    31    1
    38    16    32    1
    39    18    33    1
    40    20    34    1
    41    21    35    1
    42    24    36    1
    43    25    37    1
    44    26    38    1
    45    27    39    1
    46    28    40    1
