@<TRIPOS>MOLECULE
*****
 40 46 0 0 0
SMALL
GASTEIGER

@<TRIPOS>ATOM
      1 C          -0.6645   -2.3371   -2.6961 C.ar    1  UNL1        0.1000
      2 O          -1.9837   -2.5795   -2.9672 O.2     1  UNL1       -0.4698
      3 C          -2.7322   -1.8112   -2.1055 C.ar    1  UNL1        0.1001
      4 C          -1.9261   -1.0661   -1.2706 C.ar    1  UNL1        0.0303
      5 C          -0.6283   -1.4344   -1.6842 C.ar    1  UNL1        0.0297
      6 C           0.4784   -0.8551   -1.0353 C.ar    1  UNL1        0.0131
      7 C           1.8469   -1.0217   -1.2227 C.ar    1  UNL1       -0.0263
      8 C           2.4507   -0.1877   -0.2880 C.ar    1  UNL1        0.0682
      9 N           1.4297    0.4394    0.4155 N.ar    1  UNL1       -0.3512
     10 C           0.1897    0.0398   -0.0320 C.ar    1  UNL1        0.0739
     11 C          -1.1232    0.4000    0.3724 C.ar    1  UNL1        0.0961
     12 N          -1.1230    1.3003    1.3818 N.ar    1  UNL1       -0.2523
     13 C          -2.3317    1.6985    1.8287 C.ar    1  UNL1        0.0360
     14 C          -3.5615    1.2592    1.3369 C.ar    1  UNL1        0.0008
     15 C          -4.7600    1.7495    1.8871 C.ar    1  UNL1       -0.0526
     16 C          -5.9928    1.3208    1.4070 C.ar    1  UNL1       -0.0611
     17 C          -6.0370    0.3985    0.3731 C.ar    1  UNL1       -0.0611
     18 C          -4.8490   -0.0938   -0.1793 C.ar    1  UNL1       -0.0533
     19 C          -3.5736    0.3161    0.2796 C.ar    1  UNL1       -0.0065
     20 C          -2.2998   -0.1428   -0.2355 C.ar    1  UNL1        0.0208
     21 C           3.8404    0.0934    0.0264 C.ar    1  UNL1        0.1151
     22 N           4.0707    0.9938    1.0357 N.ar    1  UNL1       -0.2512
     23 C           5.3465    1.3250    1.4064 C.ar    1  UNL1        0.0305
     24 C           6.5338    0.8430    0.8655 C.ar    1  UNL1       -0.0153
     25 C           6.3416   -0.0854   -0.1752 C.ar    1  UNL1        0.1035
     26 N           7.3231   -0.6949   -0.8589 N.ar    1  UNL1       -0.1907
     27 S           6.5817   -1.6830   -1.9662 S.2     1  UNL1        0.1165
     28 N           4.9865   -1.3837   -1.6299 N.ar    1  UNL1       -0.1886
     29 C           4.9580   -0.4873   -0.6250 C.ar    1  UNL1        0.1271
     30 H           0.0567   -2.8721   -3.2962 H       1  UNL1        0.1036
     31 H          -3.7938   -1.9358   -2.2448 H       1  UNL1        0.1036
     32 H           2.3512   -1.6587   -1.9370 H       1  UNL1        0.0645
     33 H           1.5769    1.1061    1.1628 H       1  UNL1        0.1660
     34 H          -2.2823    2.4220    2.6398 H       1  UNL1        0.0836
     35 H          -4.7390    2.4739    2.6991 H       1  UNL1        0.0624
     36 H          -6.9130    1.7053    1.8385 H       1  UNL1        0.0618
     37 H          -6.9951    0.0559   -0.0104 H       1  UNL1        0.0618
     38 H          -4.9521   -0.8105   -0.9828 H       1  UNL1        0.0624
     39 H           5.3881    2.0503    2.2195 H       1  UNL1        0.0830
     40 H           7.5111    1.1498    1.2089 H       1  UNL1        0.0655
@<TRIPOS>BOND
     1     1     2   ar
     2     2     3   ar
     3     3     4   ar
     4     4     5   ar
     5     5     6   ar
     6     6     7   ar
     7     7     8   ar
     8     8     9   ar
     9     9    10   ar
    10    10    11   ar
    11    11    12   ar
    12    12    13   ar
    13    13    14   ar
    14    14    15   ar
    15    15    16   ar
    16    16    17   ar
    17    17    18   ar
    18    18    19   ar
    19    19    20   ar
    20     8    21    1
    21    21    22   ar
    22    22    23   ar
    23    23    24   ar
    24    24    25   ar
    25    25    26   ar
    26    26    27   ar
    27    27    28   ar
    28    28    29   ar
    29     5     1   ar
    30    10     6   ar
    31    20    11   ar
    32    29    21   ar
    33    20     4   ar
    34    29    25   ar
    35    19    14   ar
    36     1    30    1
    37     3    31    1
    38     7    32    1
    39     9    33    1
    40    13    34    1
    41    15    35    1
    42    16    36    1
    43    17    37    1
    44    18    38    1
    45    23    39    1
    46    24    40    1
