@<TRIPOS>MOLECULE
*****
 44 50 0 0 0
SMALL
GASTEIGER

@<TRIPOS>ATOM
      1 C           0.4204   -1.4731   -3.0237 C.ar    1  UNL1        0.1000
      2 O          -0.8558   -1.8528   -3.3621 O.2     1  UNL1       -0.4698
      3 C          -1.6920   -1.4621   -2.3396 C.ar    1  UNL1        0.1000
      4 C          -0.9693   -0.7896   -1.3919 C.ar    1  UNL1        0.0294
      5 C           0.3680   -0.8595   -1.8082 C.ar    1  UNL1        0.0297
      6 C           1.4542   -0.4111   -1.0328 C.ar    1  UNL1        0.0121
      7 C           2.8288   -0.3891   -1.2295 C.ar    1  UNL1       -0.0280
      8 C           3.3686    0.1136   -0.0435 C.ar    1  UNL1        0.0475
      9 N           2.3072    0.3732    0.8205 N.ar    1  UNL1       -0.3532
     10 C           1.1325    0.0525    0.2078 C.ar    1  UNL1        0.0621
     11 C          -0.3359    0.1223    0.6948 C.ar    1  UNL1        0.0450
     12 S          -0.8550    0.5358    2.2362 S.2     1  UNL1       -0.0861
     13 C          -2.5145    0.2751    1.8014 C.ar    1  UNL1        0.0212
     14 C          -3.5986    0.3385    2.6954 C.ar    1  UNL1       -0.0468
     15 C          -4.8922    0.1876    2.2068 C.ar    1  UNL1       -0.0529
     16 C          -5.1300    0.0796    0.8405 C.ar    1  UNL1       -0.0172
     17 C          -6.4504    0.0422    0.3639 C.ar    1  UNL1       -0.0540
     18 C          -6.7187    0.0405   -1.0034 C.ar    1  UNL1       -0.0612
     19 C          -5.6695    0.1064   -1.9098 C.ar    1  UNL1       -0.0611
     20 C          -4.3502    0.1261   -1.4500 C.ar    1  UNL1       -0.0534
     21 C          -4.0421    0.0508   -0.0736 C.ar    1  UNL1       -0.0091
     22 C          -2.6852    0.0196    0.4246 C.ar    1  UNL1        0.0054
     23 C          -1.3844   -0.2171   -0.1297 C.ar    1  UNL1        0.0102
     24 C           4.7634    0.3699    0.3234 C.ar    1  UNL1       -0.0017
     25 C           5.2209    0.1503    1.6303 C.ar    1  UNL1       -0.0526
     26 C           6.5535    0.4002    1.9699 C.ar    1  UNL1       -0.0611
     27 C           7.4432    0.8710    1.0070 C.ar    1  UNL1       -0.0617
     28 C           7.0029    1.0890   -0.2963 C.ar    1  UNL1       -0.0611
     29 C           5.6711    0.8377   -0.6362 C.ar    1  UNL1       -0.0526
     30 H           1.1959   -1.7482   -3.7236 H       1  UNL1        0.1036
     31 H          -2.7176   -1.7770   -2.4594 H       1  UNL1        0.1036
     32 H           3.3908   -0.7066   -2.0974 H       1  UNL1        0.0645
     33 H           2.3943    0.7643    1.7482 H       1  UNL1        0.1659
     34 H          -3.4316    0.5021    3.7568 H       1  UNL1        0.0629
     35 H          -5.7205    0.2227    2.9120 H       1  UNL1        0.0624
     36 H          -7.2882    0.0393    1.0584 H       1  UNL1        0.0624
     37 H          -7.7461    0.0247   -1.3571 H       1  UNL1        0.0618
     38 H          -5.8729    0.1597   -2.9764 H       1  UNL1        0.0618
     39 H          -3.5668    0.2664   -2.1869 H       1  UNL1        0.0624
     40 H           4.5540   -0.2384    2.3953 H       1  UNL1        0.0624
     41 H           6.8976    0.2205    2.9852 H       1  UNL1        0.0618
     42 H           8.4797    1.0644    1.2709 H       1  UNL1        0.0618
     43 H           7.6945    1.4557   -1.0504 H       1  UNL1        0.0618
     44 H           5.3459    1.0230   -1.6572 H       1  UNL1        0.0624
@<TRIPOS>BOND
     1     1     2   ar
     2     2     3   ar
     3     3     4   ar
     4     4     5   ar
     5     5     6   ar
     6     6     7   ar
     7     7     8   ar
     8     8     9   ar
     9     9    10   ar
    10    10    11   ar
    11    11    12   ar
    12    12    13   ar
    13    13    14   ar
    14    14    15   ar
    15    15    16   ar
    16    16    17   ar
    17    17    18   ar
    18    18    19   ar
    19    19    20   ar
    20    20    21   ar
    21    21    22   ar
    22    22    23   ar
    23     8    24    1
    24    24    25   ar
    25    25    26   ar
    26    26    27   ar
    27    27    28   ar
    28    28    29   ar
    29     5     1   ar
    30    10     6   ar
    31    23    11   ar
    32    29    24   ar
    33    23     4   ar
    34    22    13   ar
    35    21    16   ar
    36     1    30    1
    37     3    31    1
    38     7    32    1
    39     9    33    1
    40    14    34    1
    41    15    35    1
    42    17    36    1
    43    18    37    1
    44    19    38    1
    45    20    39    1
    46    25    40    1
    47    26    41    1
    48    27    42    1
    49    28    43    1
    50    29    44    1
