@<TRIPOS>MOLECULE
*****
 42 48 0 0 0
SMALL
GASTEIGER

@<TRIPOS>ATOM
      1 C           2.0904   -3.3066   -0.0742 C.ar    1  UNL1        0.1000
      2 O           1.2604   -4.3917   -0.0208 O.2     1  UNL1       -0.4698
      3 C          -0.0236   -3.9234    0.0174 C.ar    1  UNL1        0.1000
      4 C          -0.0168   -2.5523   -0.0112 C.ar    1  UNL1        0.0283
      5 C           1.3451   -2.1556   -0.0702 C.ar    1  UNL1        0.0296
      6 C           1.7935   -0.8208   -0.1145 C.ar    1  UNL1        0.0124
      7 C           3.1409   -0.3936   -0.1736 C.ar    1  UNL1       -0.0397
      8 C           3.4417    0.9687   -0.2130 C.ar    1  UNL1        0.0379
      9 C           2.3379    1.8158   -0.1893 C.ar    1  UNL1        0.0390
     10 N           1.0304    1.4277   -0.1325 N.ar    1  UNL1       -0.2536
     11 C           0.7164    0.1166   -0.0937 C.ar    1  UNL1        0.0794
     12 C          -0.6746   -0.3006   -0.0332 C.ar    1  UNL1        0.0094
     13 C          -1.7043    0.6556   -0.0146 C.ar    1  UNL1       -0.0436
     14 C          -3.0795    0.2941    0.0442 C.ar    1  UNL1       -0.0090
     15 C          -4.1958    1.1788    0.0676 C.ar    1  UNL1       -0.0032
     16 C          -4.1091    2.5520    0.0359 C.ar    1  UNL1       -0.0160
     17 S          -5.6613    3.2930    0.0785 S.2     1  UNL1       -0.1039
     18 C          -6.4645    1.7759    0.1398 C.ar    1  UNL1       -0.0166
     19 C          -5.5664    0.7374    0.1278 C.ar    1  UNL1       -0.0103
     20 C          -5.9724   -0.5925    0.1705 C.ar    1  UNL1       -0.0529
     21 C          -4.8704   -1.4765    0.1476 C.ar    1  UNL1       -0.0534
     22 C          -3.4885   -1.0757    0.0878 C.ar    1  UNL1       -0.0167
     23 C          -2.4809   -2.0428    0.0702 C.ar    1  UNL1       -0.0455
     24 C          -1.1129   -1.6689    0.0115 C.ar    1  UNL1       -0.0045
     25 C           4.8178    1.4798   -0.2749 C.ar    1  UNL1        0.1645
     26 N           5.8132    0.5856   -0.2935 N.ar    1  UNL1       -0.2159
     27 C           7.0346    1.1118   -0.3499 C.ar    1  UNL1        0.1200
     28 N           7.3275    2.4080   -0.3877 N.ar    1  UNL1       -0.2241
     29 C           6.2610    3.2012   -0.3643 C.ar    1  UNL1        0.1200
     30 N           4.9911    2.8053   -0.3087 N.ar    1  UNL1       -0.2159
     31 H           3.1462   -3.5356   -0.1088 H       1  UNL1        0.1036
     32 H          -0.7896   -4.6845    0.0617 H       1  UNL1        0.1036
     33 H           3.9425   -1.1278   -0.1883 H       1  UNL1        0.0632
     34 H           2.4640    2.8974   -0.2164 H       1  UNL1        0.0837
     35 H          -1.4379    1.7109   -0.0463 H       1  UNL1        0.0631
     36 H          -3.2313    3.1806   -0.0098 H       1  UNL1        0.0700
     37 H          -7.5443    1.7399    0.1809 H       1  UNL1        0.0699
     38 H          -6.9974   -0.9354    0.2158 H       1  UNL1        0.0624
     39 H          -5.0981   -2.5440    0.1782 H       1  UNL1        0.0624
     40 H          -2.7456   -3.0969    0.1019 H       1  UNL1        0.0630
     41 H           7.8687    0.4184   -0.3667 H       1  UNL1        0.1048
     42 H           6.4421    4.2705   -0.3932 H       1  UNL1        0.1048
@<TRIPOS>BOND
     1     1     2   ar
     2     2     3   ar
     3     3     4   ar
     4     4     5   ar
     5     5     6   ar
     6     6     7   ar
     7     7     8   ar
     8     8     9   ar
     9     9    10   ar
    10    10    11   ar
    11    11    12   ar
    12    12    13   ar
    13    13    14   ar
    14    14    15   ar
    15    15    16   ar
    16    16    17   ar
    17    17    18   ar
    18    18    19   ar
    19    19    20   ar
    20    20    21   ar
    21    21    22   ar
    22    22    23   ar
    23    23    24   ar
    24     8    25    1
    25    25    26   ar
    26    26    27   ar
    27    27    28   ar
    28    28    29   ar
    29    29    30   ar
    30     5     1   ar
    31    11     6   ar
    32    24    12   ar
    33    30    25   ar
    34    24     4   ar
    35    22    14   ar
    36    19    15   ar
    37     1    31    1
    38     3    32    1
    39     7    33    1
    40     9    34    1
    41    13    35    1
    42    16    36    1
    43    18    37    1
    44    20    38    1
    45    21    39    1
    46    23    40    1
    47    27    41    1
    48    29    42    1
