@<TRIPOS>MOLECULE
*****
 41 46 0 0 0
SMALL
GASTEIGER

@<TRIPOS>ATOM
      1 C          -0.1767    1.6207   -2.9591 C.ar    1  UNL1        0.1000
      2 O           0.9144    1.9630   -3.7088 O.2     1  UNL1       -0.4698
      3 C           2.0251    1.5396   -3.0327 C.ar    1  UNL1        0.1000
      4 C           1.6489    0.9329   -1.8621 C.ar    1  UNL1        0.0283
      5 C           0.2314    0.9856   -1.8145 C.ar    1  UNL1        0.0296
      6 C          -0.5570    0.4686   -0.7677 C.ar    1  UNL1        0.0123
      7 C          -1.9681    0.5044   -0.6909 C.ar    1  UNL1       -0.0427
      8 C          -2.6109   -0.0538    0.4106 C.ar    1  UNL1        0.0008
      9 C          -1.7790   -0.6154    1.3745 C.ar    1  UNL1        0.0360
     10 N          -0.4192   -0.6612    1.3197 N.ar    1  UNL1       -0.2537
     11 C           0.2310   -0.1299    0.2650 C.ar    1  UNL1        0.0794
     12 C           1.6822   -0.1783    0.2061 C.ar    1  UNL1        0.0108
     13 C           2.4251   -0.7773    1.2456 C.ar    1  UNL1       -0.0260
     14 C           3.8164   -0.8638    1.2635 C.ar    1  UNL1        0.0716
     15 N           4.4264   -1.4568    2.3053 N.ar    1  UNL1       -0.2550
     16 C           5.7754   -1.5292    2.3013 C.ar    1  UNL1        0.0283
     17 C           6.5703   -1.0295    1.2886 C.ar    1  UNL1       -0.0430
     18 C           5.9418   -0.4171    0.2122 C.ar    1  UNL1       -0.0511
     19 C           4.5437   -0.3240    0.1827 C.ar    1  UNL1        0.0010
     20 C           3.8736    0.2856   -0.8840 C.ar    1  UNL1       -0.0441
     21 C           2.4645    0.3560   -0.8702 C.ar    1  UNL1       -0.0044
     22 C          -4.0735   -0.0503    0.5465 C.ar    1  UNL1       -0.0164
     23 C          -4.8106    1.1386    0.4113 C.ar    1  UNL1       -0.0540
     24 C          -6.2022    1.1432    0.5411 C.ar    1  UNL1       -0.0612
     25 C          -6.8816   -0.0425    0.8070 C.ar    1  UNL1       -0.0617
     26 C          -6.1713   -1.2321    0.9436 C.ar    1  UNL1       -0.0612
     27 C          -4.7796   -1.2354    0.8148 C.ar    1  UNL1       -0.0540
     28 H          -1.1317    1.8988   -3.3821 H       1  UNL1        0.1036
     29 H           2.9674    1.7482   -3.5190 H       1  UNL1        0.1036
     30 H          -2.5493    0.9524   -1.4918 H       1  UNL1        0.0631
     31 H          -2.1946   -1.0627    2.2755 H       1  UNL1        0.0836
     32 H           1.8944   -1.2049    2.0975 H       1  UNL1        0.0646
     33 H           6.2124   -2.0182    3.1674 H       1  UNL1        0.0830
     34 H           7.6497   -1.1147    1.3362 H       1  UNL1        0.0633
     35 H           6.5443   -0.0154   -0.5983 H       1  UNL1        0.0625
     36 H           4.4350    0.7009   -1.7160 H       1  UNL1        0.0630
     37 H          -4.3016    2.0806    0.2163 H       1  UNL1        0.0624
     38 H          -6.7536    2.0743    0.4379 H       1  UNL1        0.0618
     39 H          -7.9638   -0.0395    0.9082 H       1  UNL1        0.0618
     40 H          -6.6992   -2.1601    1.1481 H       1  UNL1        0.0618
     41 H          -4.2497   -2.1812    0.9136 H       1  UNL1        0.0624
@<TRIPOS>BOND
     1     1     2   ar
     2     2     3   ar
     3     3     4   ar
     4     4     5   ar
     5     5     6   ar
     6     6     7   ar
     7     7     8   ar
     8     8     9   ar
     9     9    10   ar
    10    10    11   ar
    11    11    12   ar
    12    12    13   ar
    13    13    14   ar
    14    14    15   ar
    15    15    16   ar
    16    16    17   ar
    17    17    18   ar
    18    18    19   ar
    19    19    20   ar
    20    20    21   ar
    21     8    22    1
    22    22    23   ar
    23    23    24   ar
    24    24    25   ar
    25    25    26   ar
    26    26    27   ar
    27     5     1   ar
    28    11     6   ar
    29    21    12   ar
    30    27    22   ar
    31    21     4   ar
    32    19    14   ar
    33     1    28    1
    34     3    29    1
    35     7    30    1
    36     9    31    1
    37    13    32    1
    38    16    33    1
    39    17    34    1
    40    18    35    1
    41    20    36    1
    42    23    37    1
    43    24    38    1
    44    25    39    1
    45    26    40    1
    46    27    41    1
