@<TRIPOS>MOLECULE
*****
 41 47 0 0 0
SMALL
GASTEIGER

@<TRIPOS>ATOM
      1 C           0.4603    3.0902    0.1632 C.ar    1  UNL1        0.1000
      2 O           1.6740    3.7005    0.1701 O.2     1  UNL1       -0.4698
      3 C           2.6220    2.7176    0.1832 C.ar    1  UNL1        0.1000
      4 C           2.0371    1.4723    0.1850 C.ar    1  UNL1        0.0288
      5 C           0.6299    1.7294    0.1719 C.ar    1  UNL1        0.0283
      6 C          -0.3905    0.7668    0.1685 C.ar    1  UNL1       -0.0030
      7 C          -1.7814    1.0330    0.1555 C.ar    1  UNL1       -0.0257
      8 C          -2.6779   -0.0272    0.1536 C.ar    1  UNL1        0.0919
      9 N          -2.2186   -1.2961    0.1642 N.ar    1  UNL1       -0.2527
     10 C          -0.8727   -1.5150    0.1767 C.ar    1  UNL1        0.0366
     11 C           0.1448   -0.5461    0.1800 C.ar    1  UNL1        0.0087
     12 C           1.6063   -0.8349    0.1938 C.ar    1  UNL1       -0.0074
     13 C           2.0635   -2.1660    0.2047 C.ar    1  UNL1       -0.0528
     14 C           3.4160   -2.5185    0.2179 C.ar    1  UNL1       -0.0533
     15 C           4.4165   -1.5521    0.2211 C.ar    1  UNL1       -0.0144
     16 C           5.7579   -1.9580    0.2344 C.ar    1  UNL1       -0.0359
     17 C           6.7485   -0.9982    0.2375 C.ar    1  UNL1        0.0281
     18 N           6.4907    0.3168    0.2283 N.ar    1  UNL1       -0.2626
     19 C           5.1808    0.6791    0.2155 C.ar    1  UNL1        0.0359
     20 C           4.0684   -0.1867    0.2108 C.ar    1  UNL1        0.0086
     21 C           2.6487    0.1782    0.1970 C.ar    1  UNL1        0.0026
     22 C          -4.1324    0.1904    0.1404 C.ar    1  UNL1        0.1172
     23 N          -4.5981    1.4986    0.1299 N.ar    1  UNL1       -0.2511
     24 C          -5.9327    1.7990    0.1172 C.ar    1  UNL1        0.0305
     25 C          -6.9915    0.9039    0.1128 C.ar    1  UNL1       -0.0153
     26 C          -6.5863   -0.4426    0.1230 C.ar    1  UNL1        0.1035
     27 N          -7.4253   -1.4908    0.1211 N.ar    1  UNL1       -0.1907
     28 S          -6.4781   -2.8507    0.1358 S.2     1  UNL1        0.1165
     29 N          -4.9709   -2.1727    0.1452 N.ar    1  UNL1       -0.1886
     30 C          -5.1250   -0.8350    0.1372 C.ar    1  UNL1        0.1272
     31 H          -0.3911    3.7561    0.1526 H       1  UNL1        0.1036
     32 H           3.6253    3.1097    0.1895 H       1  UNL1        0.1036
     33 H          -2.1489    2.0541    0.1470 H       1  UNL1        0.0646
     34 H          -0.6478   -2.5774    0.1844 H       1  UNL1        0.0836
     35 H           1.3677   -3.0015    0.2035 H       1  UNL1        0.0624
     36 H           3.6710   -3.5776    0.2256 H       1  UNL1        0.0624
     37 H           6.0348   -3.0075    0.2424 H       1  UNL1        0.0639
     38 H           7.7993   -1.2711    0.2477 H       1  UNL1        0.0830
     39 H           5.0727    1.7529    0.2088 H       1  UNL1        0.0836
     40 H          -6.1389    2.8694    0.1101 H       1  UNL1        0.0830
     41 H          -8.0282    1.2076    0.1025 H       1  UNL1        0.0655
@<TRIPOS>BOND
     1     1     2   ar
     2     2     3   ar
     3     3     4   ar
     4     4     5   ar
     5     5     6   ar
     6     6     7   ar
     7     7     8   ar
     8     8     9   ar
     9     9    10   ar
    10    10    11   ar
    11    11    12   ar
    12    12    13   ar
    13    13    14   ar
    14    14    15   ar
    15    15    16   ar
    16    16    17   ar
    17    17    18   ar
    18    18    19   ar
    19    19    20   ar
    20    20    21   ar
    21     8    22    1
    22    22    23   ar
    23    23    24   ar
    24    24    25   ar
    25    25    26   ar
    26    26    27   ar
    27    27    28   ar
    28    28    29   ar
    29    29    30   ar
    30     5     1   ar
    31    11     6   ar
    32    21    12   ar
    33    30    22   ar
    34    21     4   ar
    35    30    26   ar
    36    20    15   ar
    37     1    31    1
    38     3    32    1
    39     7    33    1
    40    10    34    1
    41    13    35    1
    42    14    36    1
    43    16    37    1
    44    17    38    1
    45    19    39    1
    46    24    40    1
    47    25    41    1
