@<TRIPOS>MOLECULE
*****
 48 55 0 0 0
SMALL
GASTEIGER

@<TRIPOS>ATOM
      1 C           0.0602   -2.3840    2.7168 C.ar    1  UNL1        0.1001
      2 O          -1.2742   -2.6862    2.6900 O.2     1  UNL1       -0.4698
      3 C          -1.8425   -1.9451    1.6832 C.ar    1  UNL1        0.1000
      4 C          -0.9235   -1.0927    1.1006 C.ar    1  UNL1        0.0290
      5 C           0.2775   -1.4751    1.7330 C.ar    1  UNL1        0.0312
      6 C           1.4878   -0.9548    1.2530 C.ar    1  UNL1        0.0322
      7 C           2.8088   -1.1339    1.6436 C.ar    1  UNL1       -0.0058
      8 C           3.5364   -0.4223    0.6987 C.ar    1  UNL1        0.1544
      9 O           2.6823    0.1435   -0.2232 O.2     1  UNL1       -0.4526
     10 C           1.3966   -0.1838    0.1204 C.ar    1  UNL1        0.1447
     11 C           0.1837    0.1502   -0.5355 C.ar    1  UNL1        0.0345
     12 C           0.0973    0.7871   -1.7847 C.ar    1  UNL1        0.0010
     13 C           1.1820    1.1812   -2.5389 C.ar    1  UNL1       -0.0159
     14 S           0.7205    1.8528   -4.0459 S.2     1  UNL1       -0.1038
     15 C          -0.9414    1.6158   -3.7077 C.ar    1  UNL1       -0.0160
     16 C          -1.1487    1.0428   -2.4706 C.ar    1  UNL1       -0.0024
     17 C          -2.4400    0.7756   -1.9284 C.ar    1  UNL1       -0.0084
     18 C          -3.6417    0.9969   -2.6373 C.ar    1  UNL1       -0.0528
     19 C          -4.8664    0.8119   -2.0171 C.ar    1  UNL1       -0.0534
     20 C          -4.9230    0.5302   -0.6562 C.ar    1  UNL1       -0.0173
     21 C          -6.1795    0.5025   -0.0267 C.ar    1  UNL1       -0.0540
     22 C          -6.2883    0.3654    1.3525 C.ar    1  UNL1       -0.0612
     23 C          -5.1368    0.2907    2.1162 C.ar    1  UNL1       -0.0611
     24 C          -3.8856    0.2939    1.4899 C.ar    1  UNL1       -0.0534
     25 C          -3.7234    0.3309    0.0833 C.ar    1  UNL1       -0.0096
     26 C          -2.4340    0.2796   -0.5857 C.ar    1  UNL1       -0.0011
     27 C          -1.1340   -0.1919    0.0036 C.ar    1  UNL1        0.0053
     28 C           4.9617   -0.1754    0.4882 C.ar    1  UNL1        0.1060
     29 C           5.9282   -0.6664    1.3620 C.ar    1  UNL1       -0.0327
     30 C           7.2705   -0.3954    1.1020 C.ar    1  UNL1       -0.0582
     31 C           7.6097    0.3541   -0.0172 C.ar    1  UNL1       -0.0436
     32 C           6.5880    0.8043   -0.8347 C.ar    1  UNL1        0.0284
     33 N           5.2804    0.5570   -0.6074 N.ar    1  UNL1       -0.2519
     34 H           0.6596   -2.9286    3.4315 H       1  UNL1        0.1036
     35 H          -2.8879   -2.1636    1.5143 H       1  UNL1        0.1036
     36 H           3.2036   -1.7009    2.4729 H       1  UNL1        0.0662
     37 H           2.2378    1.1162   -2.3153 H       1  UNL1        0.0700
     38 H          -1.6605    1.9327   -4.4483 H       1  UNL1        0.0700
     39 H          -3.6379    1.3093   -3.6771 H       1  UNL1        0.0624
     40 H          -5.7750    0.9748   -2.5926 H       1  UNL1        0.0624
     41 H          -7.0915    0.6231   -0.6086 H       1  UNL1        0.0624
     42 H          -7.2650    0.3621    1.8280 H       1  UNL1        0.0618
     43 H          -5.2002    0.2434    3.2003 H       1  UNL1        0.0618
     44 H          -3.0154    0.3117    2.1423 H       1  UNL1        0.0624
     45 H           5.6573   -1.2500    2.2343 H       1  UNL1        0.0640
     46 H           8.0440   -0.7666    1.7684 H       1  UNL1        0.0619
     47 H           8.6442    0.5827   -0.2478 H       1  UNL1        0.0633
     48 H           6.7982    1.3944   -1.7223 H       1  UNL1        0.0830
@<TRIPOS>BOND
     1     1     2   ar
     2     2     3   ar
     3     3     4   ar
     4     4     5   ar
     5     5     6   ar
     6     6     7   ar
     7     7     8   ar
     8     8     9   ar
     9     9    10   ar
    10    10    11   ar
    11    11    12   ar
    12    12    13   ar
    13    13    14   ar
    14    14    15   ar
    15    15    16   ar
    16    16    17   ar
    17    17    18   ar
    18    18    19   ar
    19    19    20   ar
    20    20    21   ar
    21    21    22   ar
    22    22    23   ar
    23    23    24   ar
    24    24    25   ar
    25    25    26   ar
    26    26    27   ar
    27     8    28    1
    28    28    29   ar
    29    29    30   ar
    30    30    31   ar
    31    31    32   ar
    32    32    33   ar
    33     5     1   ar
    34    10     6   ar
    35    27    11   ar
    36    33    28   ar
    37    27     4   ar
    38    16    12   ar
    39    26    17   ar
    40    25    20   ar
    41     1    34    1
    42     3    35    1
    43     7    36    1
    44    13    37    1
    45    15    38    1
    46    18    39    1
    47    19    40    1
    48    21    41    1
    49    22    42    1
    50    23    43    1
    51    24    44    1
    52    29    45    1
    53    30    46    1
    54    31    47    1
    55    32    48    1
