@<TRIPOS>MOLECULE
*****
 43 49 0 0 0
SMALL
GASTEIGER

@<TRIPOS>ATOM
      1 SI         -6.3829    1.0972   -1.5567 Si      1  UNL1        0.0000
      2 C          -6.7840    0.1317   -0.0193 C.2     1  UNL1        0.0000
      3 C          -5.6653   -0.3310    0.5693 C.ar    1  UNL1        0.0000
      4 C          -5.6839   -1.2352    1.6932 C.ar    1  UNL1        0.0000
      5 C          -4.5318   -1.7685    2.1238 C.ar    1  UNL1        0.0000
      6 C          -3.2290   -1.4004    1.5379 C.ar    1  UNL1        0.0000
      7 N          -2.1918   -2.0487    2.1034 N.ar    1  UNL1        0.0000
      8 C          -0.9592   -1.6989    1.6864 C.ar    1  UNL1        0.0000
      9 C          -0.6570   -0.6788    0.7737 C.ar    1  UNL1        0.0000
     10 C          -1.7661    0.0157    0.2167 C.ar    1  UNL1        0.0000
     11 C          -1.4590    1.1317   -0.5921 C.ar    1  UNL1        0.0000
     12 C          -0.1500    1.4951   -0.9176 C.ar    1  UNL1        0.0000
     13 C           0.9333    0.7682   -0.4314 C.ar    1  UNL1        0.0000
     14 C           2.2439    1.1352   -0.7789 C.ar    1  UNL1        0.0000
     15 C           3.3190    0.4152   -0.2744 C.ar    1  UNL1        0.0000
     16 N           3.1351   -0.6363    0.5515 N.ar    1  UNL1        0.0000
     17 C           1.8607   -0.9707    0.8741 C.ar    1  UNL1        0.0000
     18 C           0.6973   -0.3213    0.4247 C.ar    1  UNL1        0.0000
     19 C           4.7263    0.7093   -0.5714 C.ar    1  UNL1        0.0000
     20 S           5.2159    2.0168   -1.6337 S.2     1  UNL1        0.0000
     21 C           6.9083    1.7020   -1.4599 C.ar    1  UNL1        0.0000
     22 C           7.0394    0.6528   -0.6315 C.ar    1  UNL1        0.0000
     23 O           8.2085    0.0832   -0.2317 O.2     1  UNL1        0.0000
     24 C           7.7104   -0.9157    0.5850 C.ar    1  UNL1        0.0000
     25 C           6.3131   -0.9424    0.6696 C.ar    1  UNL1        0.0000
     26 C           5.8722    0.1143   -0.1505 C.ar    1  UNL1        0.0000
     27 C          -3.0943   -0.4145    0.5334 C.ar    1  UNL1        0.0000
     28 C          -4.3816    0.0638   -0.0720 C.ar    1  UNL1        0.0000
     29 C          -4.5695    0.7309   -1.2322 C.2     1  UNL1        0.0000
     30 H          -6.8714    0.4418   -2.7931 H       1  UNL1        0.0000
     31 H          -6.6879    2.5422   -1.4270 H       1  UNL1        0.0000
     32 H          -7.8037   -0.0663    0.2713 H       1  UNL1        0.0000
     33 H          -6.6296   -1.5122    2.1462 H       1  UNL1        0.0000
     34 H          -4.5126   -2.4761    2.9454 H       1  UNL1        0.0000
     35 H          -0.1827   -2.2840    2.1707 H       1  UNL1        0.0000
     36 H          -2.2403    1.7896   -0.9559 H       1  UNL1        0.0000
     37 H           0.0046    2.3664   -1.5520 H       1  UNL1        0.0000
     38 H           2.4043    1.9818   -1.4386 H       1  UNL1        0.0000
     39 H           1.8157   -1.8294    1.5378 H       1  UNL1        0.0000
     40 H           7.6827    2.2738   -1.9496 H       1  UNL1        0.0000
     41 H           8.4749   -1.5317    1.0400 H       1  UNL1        0.0000
     42 H           5.7183   -1.6356    1.2475 H       1  UNL1        0.0000
     43 H          -3.8503    1.0391   -1.9692 H       1  UNL1        0.0000
@<TRIPOS>BOND
     1     1     2    1
     2     2     3    2
     3     3     4   ar
     4     4     5   ar
     5     5     6   ar
     6     6     7   ar
     7     7     8   ar
     8     8     9   ar
     9     9    10   ar
    10    10    11   ar
    11    11    12   ar
    12    12    13   ar
    13    13    14   ar
    14    14    15   ar
    15    15    16   ar
    16    16    17   ar
    17    17    18   ar
    18    15    19    1
    19    19    20   ar
    20    20    21   ar
    21    21    22   ar
    22    22    23   ar
    23    23    24   ar
    24    24    25   ar
    25    25    26   ar
    26    10    27   ar
    27    27    28   ar
    28    28    29    2
    29    29     1    1
    30    28     3   ar
    31    27     6   ar
    32    18     9   ar
    33    26    19   ar
    34    18    13   ar
    35    26    22   ar
    36     1    30    1
    37     1    31    1
    38     2    32    1
    39     4    33    1
    40     5    34    1
    41     8    35    1
    42    11    36    1
    43    12    37    1
    44    14    38    1
    45    17    39    1
    46    21    40    1
    47    24    41    1
    48    25    42    1
    49    29    43    1
