@<TRIPOS>MOLECULE
*****
 49 56 0 0 0
SMALL
GASTEIGER

@<TRIPOS>ATOM
      1 C          -1.0455   -3.8553   -3.1309 C.ar    1  UNL1        0.1001
      2 O           0.0973   -4.4201   -3.6436 O.2     1  UNL1       -0.4698
      3 C           1.1715   -3.7346   -3.1241 C.ar    1  UNL1        0.1000
      4 C           0.7415   -2.7343   -2.2824 C.ar    1  UNL1        0.0284
      5 C          -0.6595   -2.8431   -2.3135 C.ar    1  UNL1        0.0312
      6 C          -1.4038   -1.9330   -1.5331 C.ar    1  UNL1        0.0321
      7 C          -2.7665   -1.7602   -1.3339 C.ar    1  UNL1       -0.0074
      8 C          -2.8531   -0.6896   -0.4487 C.ar    1  UNL1        0.1369
      9 O          -1.5915   -0.2422   -0.1331 O.2     1  UNL1       -0.4542
     10 C          -0.6810   -1.0145   -0.8070 C.ar    1  UNL1        0.1441
     11 C           0.7426   -0.9118   -0.7819 C.ar    1  UNL1        0.0263
     12 C           1.3795    0.0698   -0.0002 C.ar    1  UNL1       -0.0422
     13 C           2.7926    0.1988    0.0471 C.ar    1  UNL1       -0.0095
     14 C           3.5562   -0.7135   -0.7360 C.ar    1  UNL1       -0.0167
     15 C           4.9505   -0.6362   -0.7306 C.ar    1  UNL1       -0.0534
     16 C           5.6108    0.3230    0.0317 C.ar    1  UNL1       -0.0534
     17 C           4.8969    1.2349    0.8123 C.ar    1  UNL1       -0.0173
     18 C           5.5971    2.1898    1.5695 C.ar    1  UNL1       -0.0540
     19 C           4.9228    3.1159    2.3602 C.ar    1  UNL1       -0.0612
     20 C           3.5377    3.0972    2.4025 C.ar    1  UNL1       -0.0611
     21 C           2.8300    2.1518    1.6537 C.ar    1  UNL1       -0.0534
     22 C           3.4789    1.1911    0.8355 C.ar    1  UNL1       -0.0102
     23 C           2.9329   -1.6991   -1.5215 C.ar    1  UNL1       -0.0455
     24 C           1.5298   -1.8085   -1.5531 C.ar    1  UNL1       -0.0030
     25 C          -3.9850   -0.0046    0.1626 C.ar    1  UNL1        0.0255
     26 C          -5.3289   -0.3951   -0.1032 C.ar    1  UNL1       -0.0505
     27 C          -6.4902    0.2272    0.4576 C.ar    1  UNL1       -0.0605
     28 C          -6.4405    1.3126    1.3496 C.ar    1  UNL1       -0.0535
     29 C          -5.1304    1.7048    1.6182 C.ar    1  UNL1       -0.0102
     30 C          -4.8578    2.7492    2.4671 C.ar    1  UNL1       -0.0166
     31 S          -3.1701    3.0081    2.6102 S.2     1  UNL1       -0.1039
     32 C          -2.8097    1.7170    1.5317 C.ar    1  UNL1       -0.0159
     33 C          -3.9399    1.0870    1.0598 C.ar    1  UNL1       -0.0002
     34 H          -1.9789   -4.2933   -3.4525 H       1  UNL1        0.1036
     35 H           2.1380   -4.0874   -3.4549 H       1  UNL1        0.1036
     36 H          -3.5886   -2.3167   -1.7578 H       1  UNL1        0.0662
     37 H           0.7480    0.7391    0.5773 H       1  UNL1        0.0631
     38 H           5.5471   -1.3264   -1.3238 H       1  UNL1        0.0624
     39 H           6.6984    0.3487    0.0075 H       1  UNL1        0.0624
     40 H           6.6847    2.2194    1.5484 H       1  UNL1        0.0624
     41 H           5.4789    3.8477    2.9395 H       1  UNL1        0.0618
     42 H           3.0000    3.8153    3.0163 H       1  UNL1        0.0618
     43 H           1.7465    2.1838    1.7252 H       1  UNL1        0.0624
     44 H           3.5352   -2.3853   -2.1118 H       1  UNL1        0.0630
     45 H          -5.5105   -1.2288   -0.7824 H       1  UNL1        0.0625
     46 H          -7.4677   -0.1654    0.1748 H       1  UNL1        0.0618
     47 H          -7.3287    1.7712    1.7642 H       1  UNL1        0.0624
     48 H          -5.5477    3.3776    3.0133 H       1  UNL1        0.0699
     49 H          -1.7702    1.5178    1.3245 H       1  UNL1        0.0700
@<TRIPOS>BOND
     1     1     2   ar
     2     2     3   ar
     3     3     4   ar
     4     4     5   ar
     5     5     6   ar
     6     6     7   ar
     7     7     8   ar
     8     8     9   ar
     9     9    10   ar
    10    10    11   ar
    11    11    12   ar
    12    12    13   ar
    13    13    14   ar
    14    14    15   ar
    15    15    16   ar
    16    16    17   ar
    17    17    18   ar
    18    18    19   ar
    19    19    20   ar
    20    20    21   ar
    21    21    22   ar
    22    14    23   ar
    23    23    24   ar
    24     8    25    1
    25    25    26   ar
    26    26    27   ar
    27    27    28   ar
    28    28    29   ar
    29    29    30   ar
    30    30    31   ar
    31    31    32   ar
    32    32    33   ar
    33     5     1   ar
    34    10     6   ar
    35    24    11   ar
    36    33    25   ar
    37    24     4   ar
    38    33    29   ar
    39    22    13   ar
    40    22    17   ar
    41     1    34    1
    42     3    35    1
    43     7    36    1
    44    12    37    1
    45    15    38    1
    46    16    39    1
    47    18    40    1
    48    19    41    1
    49    20    42    1
    50    21    43    1
    51    23    44    1
    52    26    45    1
    53    27    46    1
    54    28    47    1
    55    30    48    1
    56    32    49    1
