@<TRIPOS>MOLECULE
*****
 42 48 0 0 0
SMALL
GASTEIGER

@<TRIPOS>ATOM
      1 C          -4.3408    2.8749    0.0421 C.ar    1  UNL1        0.1000
      2 O          -3.6329    4.0407    0.0153 O.2     1  UNL1       -0.4698
      3 C          -2.3109    3.7084   -0.0325 C.ar    1  UNL1        0.1000
      4 C          -2.1702    2.3419   -0.0393 C.ar    1  UNL1        0.0282
      5 C          -3.4840    1.8007    0.0104 C.ar    1  UNL1        0.0282
      6 C          -3.8186    0.4334    0.0105 C.ar    1  UNL1       -0.0060
      7 C          -5.1919   -0.0257    0.0767 C.ar    1  UNL1       -0.0527
      8 C          -5.5564   -1.3742    0.0356 C.ar    1  UNL1       -0.0529
      9 C          -4.4477   -2.1913   -0.1367 C.ar    1  UNL1       -0.0103
     10 C          -4.6119   -3.5483   -0.2789 C.ar    1  UNL1       -0.0166
     11 S          -3.1214   -4.3239   -0.5875 S.2     1  UNL1       -0.1039
     12 C          -2.2654   -2.8330   -0.5377 C.ar    1  UNL1       -0.0160
     13 C          -3.0596   -1.7560   -0.2068 C.ar    1  UNL1       -0.0026
     14 C          -2.6054   -0.3884   -0.0743 C.ar    1  UNL1       -0.0012
     15 C          -1.2068    0.1842   -0.0306 C.ar    1  UNL1       -0.0054
     16 C          -0.0321   -0.5957    0.0868 C.ar    1  UNL1       -0.0104
     17 C           1.2277    0.0150    0.0814 C.ar    1  UNL1        0.1364
     18 O           2.4166   -0.6430    0.1698 O.2     1  UNL1       -0.4533
     19 C           3.4071    0.3011    0.1262 C.ar    1  UNL1        0.1543
     20 C           2.8427    1.5584    0.0188 C.ar    1  UNL1       -0.0065
     21 C           1.4371    1.3787   -0.0058 C.ar    1  UNL1        0.0214
     22 C           0.3177    2.2130   -0.0672 C.ar    1  UNL1       -0.0425
     23 C          -0.9710    1.6048   -0.0570 C.ar    1  UNL1       -0.0058
     24 C           4.7813   -0.1762    0.2019 C.ar    1  UNL1        0.1060
     25 C           5.1049   -1.5250    0.3133 C.ar    1  UNL1       -0.0327
     26 C           6.4478   -1.8892    0.3795 C.ar    1  UNL1       -0.0582
     27 C           7.4236   -0.9013    0.3328 C.ar    1  UNL1       -0.0436
     28 C           7.0148    0.4170    0.2214 C.ar    1  UNL1        0.0284
     29 N           5.7213    0.8016    0.1550 N.ar    1  UNL1       -0.2519
     30 H          -5.4139    2.9963    0.0784 H       1  UNL1        0.1036
     31 H          -1.6297    4.5471   -0.0515 H       1  UNL1        0.1036
     32 H          -5.9965    0.7033    0.1630 H       1  UNL1        0.0624
     33 H          -6.5849   -1.7067    0.0838 H       1  UNL1        0.0624
     34 H          -5.5247   -4.1278   -0.2474 H       1  UNL1        0.0699
     35 H          -1.2210   -2.8810   -0.7914 H       1  UNL1        0.0700
     36 H          -0.0578   -1.6632    0.2377 H       1  UNL1        0.0661
     37 H           3.3945    2.4869   -0.0265 H       1  UNL1        0.0662
     38 H           0.4432    3.2893   -0.1029 H       1  UNL1        0.0631
     39 H           4.3308   -2.2845    0.3486 H       1  UNL1        0.0640
     40 H           6.7272   -2.9353    0.4668 H       1  UNL1        0.0619
     41 H           8.4774   -1.1519    0.3822 H       1  UNL1        0.0633
     42 H           7.7398    1.2251    0.1811 H       1  UNL1        0.0830
@<TRIPOS>BOND
     1     1     2   ar
     2     2     3   ar
     3     3     4   ar
     4     4     5   ar
     5     5     6   ar
     6     6     7   ar
     7     7     8   ar
     8     8     9   ar
     9     9    10   ar
    10    10    11   ar
    11    11    12   ar
    12    12    13   ar
    13    13    14   ar
    14    14    15   ar
    15    15    16   ar
    16    16    17   ar
    17    17    18   ar
    18    18    19   ar
    19    19    20   ar
    20    20    21   ar
    21    21    22   ar
    22    22    23   ar
    23    19    24    1
    24    24    25   ar
    25    25    26   ar
    26    26    27   ar
    27    27    28   ar
    28    28    29   ar
    29     5     1   ar
    30    14     6   ar
    31    23    15   ar
    32    29    24   ar
    33    23     4   ar
    34    13     9   ar
    35    21    17   ar
    36     1    30    1
    37     3    31    1
    38     7    32    1
    39     8    33    1
    40    10    34    1
    41    12    35    1
    42    16    36    1
    43    20    37    1
    44    22    38    1
    45    25    39    1
    46    26    40    1
    47    27    41    1
    48    28    42    1
