@<TRIPOS>MOLECULE
*****
 40 46 0 0 0
SMALL
GASTEIGER

@<TRIPOS>ATOM
      1 C          -2.2267   -1.4582   -3.3481 C.ar    1  UNL1        0.1000
      2 O          -1.0524   -1.9026   -3.8823 O.2     1  UNL1       -0.4698
      3 C          -0.0592   -1.5649   -3.0105 C.ar    1  UNL1        0.1000
      4 C          -0.5901   -0.9111   -1.9256 C.ar    1  UNL1        0.0282
      5 C          -1.9937   -0.8404   -2.1428 C.ar    1  UNL1        0.0282
      6 C          -2.9392   -0.2606   -1.2754 C.ar    1  UNL1       -0.0060
      7 C          -4.3542   -0.2221   -1.5871 C.ar    1  UNL1       -0.0527
      8 C          -5.3183    0.3106   -0.7268 C.ar    1  UNL1       -0.0529
      9 C          -4.7509    0.7335    0.4676 C.ar    1  UNL1       -0.0103
     10 C          -5.5515    1.2195    1.4732 C.ar    1  UNL1       -0.0166
     11 S          -4.6404    1.5731    2.8746 S.2     1  UNL1       -0.1039
     12 C          -3.1778    1.0631    2.1270 C.ar    1  UNL1       -0.0160
     13 C          -3.3347    0.7048    0.8055 C.ar    1  UNL1       -0.0026
     14 C          -2.2764    0.2546   -0.0717 C.ar    1  UNL1       -0.0013
     15 C          -0.7741    0.2582    0.1133 C.ar    1  UNL1       -0.0088
     16 C          -0.0833    0.9043    1.1622 C.ar    1  UNL1       -0.0528
     17 C           1.3157    0.8579    1.3244 C.ar    1  UNL1       -0.0533
     18 C           2.1397    0.1737    0.4284 C.ar    1  UNL1       -0.0137
     19 C           1.5151   -0.4365   -0.6614 C.ar    1  UNL1       -0.0455
     20 C           0.1040   -0.3786   -0.8217 C.ar    1  UNL1       -0.0060
     21 C           3.5931    0.1328    0.5929 C.ar    1  UNL1        0.0284
     22 C           4.5118    0.4179   -0.4311 C.ar    1  UNL1        0.0375
     23 N           5.8853    0.3981   -0.3773 N.ar    1  UNL1       -0.2604
     24 C           6.5284    0.0736    0.7799 C.ar    1  UNL1        0.0557
     25 C           5.7456   -0.2389    1.9075 C.ar    1  UNL1        0.1185
     26 N           6.2014   -0.5808    3.1234 N.ar    1  UNL1       -0.1892
     27 S           4.8634   -0.8529    4.0651 S.2     1  UNL1        0.1165
     28 N           3.6520   -0.5412    2.9781 N.ar    1  UNL1       -0.1901
     29 C           4.2391   -0.2087    1.8126 C.ar    1  UNL1        0.1105
     30 H          -3.1040   -1.6661   -3.9438 H       1  UNL1        0.1036
     31 H           0.9352   -1.8565   -3.3166 H       1  UNL1        0.1036
     32 H          -4.7041   -0.6247   -2.5367 H       1  UNL1        0.0624
     33 H          -6.3728    0.3331   -0.9678 H       1  UNL1        0.0624
     34 H          -6.6236    1.3628    1.4770 H       1  UNL1        0.0699
     35 H          -2.3066    1.0470    2.7578 H       1  UNL1        0.0700
     36 H          -0.6104    1.5238    1.8769 H       1  UNL1        0.0624
     37 H           1.7496    1.3894    2.1713 H       1  UNL1        0.0624
     38 H           2.1154   -0.9668   -1.3968 H       1  UNL1        0.0630
     39 H           4.1394    0.7081   -1.4152 H       1  UNL1        0.0836
     40 H           7.6102    0.0714    0.7759 H       1  UNL1        0.0852
@<TRIPOS>BOND
     1     1     2   ar
     2     2     3   ar
     3     3     4   ar
     4     4     5   ar
     5     5     6   ar
     6     6     7   ar
     7     7     8   ar
     8     8     9   ar
     9     9    10   ar
    10    10    11   ar
    11    11    12   ar
    12    12    13   ar
    13    13    14   ar
    14    14    15   ar
    15    15    16   ar
    16    16    17   ar
    17    17    18   ar
    18    18    19   ar
    19    19    20   ar
    20    18    21    1
    21    21    22   ar
    22    22    23   ar
    23    23    24   ar
    24    24    25   ar
    25    25    26   ar
    26    26    27   ar
    27    27    28   ar
    28    28    29   ar
    29     5     1   ar
    30    14     6   ar
    31    20    15   ar
    32    29    21   ar
    33    20     4   ar
    34    29    25   ar
    35    13     9   ar
    36     1    30    1
    37     3    31    1
    38     7    32    1
    39     8    33    1
    40    10    34    1
    41    12    35    1
    42    16    36    1
    43    17    37    1
    44    19    38    1
    45    22    39    1
    46    24    40    1
