@<TRIPOS>MOLECULE
*****
 48 55 0 0 0
SMALL
GASTEIGER

@<TRIPOS>ATOM
      1 C           3.5225    2.5771    2.4375 C.ar    1  UNL1        0.1000
      2 O           2.3264    3.1132    2.8063 O.2     1  UNL1       -0.4698
      3 C           1.3580    2.4433    2.1193 C.ar    1  UNL1        0.1001
      4 C           1.9197    1.4803    1.3139 C.ar    1  UNL1        0.0302
      5 C           3.3270    1.5708    1.5221 C.ar    1  UNL1        0.0282
      6 C           4.3146    0.7717    0.9196 C.ar    1  UNL1       -0.0060
      7 C           5.7301    0.9469    1.1857 C.ar    1  UNL1       -0.0527
      8 C           6.7255    0.1340    0.6365 C.ar    1  UNL1       -0.0529
      9 C           6.1758   -0.8847   -0.1289 C.ar    1  UNL1       -0.0103
     10 C           6.9902   -1.8418   -0.6851 C.ar    1  UNL1       -0.0166
     11 S           6.0761   -3.0495   -1.4758 S.2     1  UNL1       -0.1039
     12 C           4.5928   -2.2863   -1.0580 C.ar    1  UNL1       -0.0160
     13 C           4.7608   -1.0810   -0.4102 C.ar    1  UNL1       -0.0026
     14 C           3.6911   -0.2157    0.0401 C.ar    1  UNL1       -0.0012
     15 C           2.2104   -0.2403   -0.2606 C.ar    1  UNL1       -0.0068
     16 C           1.6394   -1.0381   -1.2684 C.ar    1  UNL1       -0.0527
     17 C           0.2641   -1.0972   -1.5166 C.ar    1  UNL1       -0.0519
     18 C          -0.6317   -0.3265   -0.7767 C.ar    1  UNL1        0.0016
     19 C          -2.0114   -0.4067   -1.0283 C.ar    1  UNL1       -0.0434
     20 C          -2.9160    0.3717   -0.3081 C.ar    1  UNL1        0.0014
     21 C          -2.3648    1.2181    0.6388 C.ar    1  UNL1        0.0360
     22 N          -1.0387    1.3196    0.8998 N.ar    1  UNL1       -0.2537
     23 C          -0.1586    0.5545    0.2093 C.ar    1  UNL1        0.0794
     24 C           1.2553    0.5975    0.4260 C.ar    1  UNL1        0.0194
     25 C          -4.3487    0.3175   -0.5495 C.ar    1  UNL1       -0.0082
     26 C          -5.0948    1.3936   -1.1004 C.ar    1  UNL1       -0.0534
     27 C          -6.5046    1.3547   -1.3540 C.ar    1  UNL1       -0.0606
     28 C          -7.3224    0.2387   -1.0820 C.ar    1  UNL1       -0.0535
     29 C          -6.5938   -0.8162   -0.5340 C.ar    1  UNL1       -0.0103
     30 C          -7.1807   -2.0054   -0.1787 C.ar    1  UNL1       -0.0166
     31 S          -6.0284   -3.0952    0.4819 S.2     1  UNL1       -0.1039
     32 C          -4.7427   -1.9679    0.2942 C.ar    1  UNL1       -0.0160
     33 C          -5.1730   -0.7905   -0.2746 C.ar    1  UNL1       -0.0031
     34 H           4.3843    3.0191    2.9162 H       1  UNL1        0.1036
     35 H           0.3493    2.7778    2.3168 H       1  UNL1        0.1036
     36 H           6.0540    1.7491    1.8474 H       1  UNL1        0.0624
     37 H           7.7783    0.2719    0.8441 H       1  UNL1        0.0624
     38 H           8.0684   -1.9193   -0.6478 H       1  UNL1        0.0699
     39 H           3.6957   -2.8244   -1.3114 H       1  UNL1        0.0700
     40 H           2.2606   -1.6084   -1.9486 H       1  UNL1        0.0624
     41 H          -0.0934   -1.7484   -2.3127 H       1  UNL1        0.0624
     42 H          -2.3852   -1.0789   -1.7992 H       1  UNL1        0.0631
     43 H          -2.9926    1.8647    1.2476 H       1  UNL1        0.0836
     44 H          -4.5669    2.3132   -1.3615 H       1  UNL1        0.0624
     45 H          -6.9696    2.2425   -1.7848 H       1  UNL1        0.0618
     46 H          -8.3861    0.2294   -1.2799 H       1  UNL1        0.0624
     47 H          -8.2171   -2.3027   -0.2611 H       1  UNL1        0.0699
     48 H          -3.7493   -2.2461    0.6185 H       1  UNL1        0.0700
@<TRIPOS>BOND
     1     1     2   ar
     2     2     3   ar
     3     3     4   ar
     4     4     5   ar
     5     5     6   ar
     6     6     7   ar
     7     7     8   ar
     8     8     9   ar
     9     9    10   ar
    10    10    11   ar
    11    11    12   ar
    12    12    13   ar
    13    13    14   ar
    14    14    15   ar
    15    15    16   ar
    16    16    17   ar
    17    17    18   ar
    18    18    19   ar
    19    19    20   ar
    20    20    21   ar
    21    21    22   ar
    22    22    23   ar
    23    23    24   ar
    24    20    25    1
    25    25    26   ar
    26    26    27   ar
    27    27    28   ar
    28    28    29   ar
    29    29    30   ar
    30    30    31   ar
    31    31    32   ar
    32    32    33   ar
    33     5     1   ar
    34    14     6   ar
    35    24    15   ar
    36    33    25   ar
    37    24     4   ar
    38    33    29   ar
    39    13     9   ar
    40    23    18   ar
    41     1    34    1
    42     3    35    1
    43     7    36    1
    44     8    37    1
    45    10    38    1
    46    12    39    1
    47    16    40    1
    48    17    41    1
    49    19    42    1
    50    21    43    1
    51    26    44    1
    52    27    45    1
    53    28    46    1
    54    30    47    1
    55    32    48    1
