@<TRIPOS>MOLECULE
*****
 46 52 0 0 0
SMALL
GASTEIGER

@<TRIPOS>ATOM
      1 C           7.5671    0.9947    0.4635 C.ar    1  UNL1        0.0994
      2 O           7.0318    1.9853    1.2530 O.2     1  UNL1       -0.4698
      3 C           5.6680    1.8103    1.2700 C.ar    1  UNL1        0.1000
      4 C           5.3848    0.7275    0.5001 C.ar    1  UNL1        0.0296
      5 C           6.5678    0.1884   -0.0252 C.ar    1  UNL1        0.0206
      6 C           6.7331   -0.9122   -0.8563 C.ar    1  UNL1       -0.0490
      7 C           5.5034   -1.5294   -1.1806 C.ar    1  UNL1       -0.0371
      8 C           4.2758   -1.0210   -0.6732 C.ar    1  UNL1        0.0482
      9 N           2.9748   -1.4400   -0.8433 N.ar    1  UNL1       -0.3536
     10 C           2.0876   -0.6287   -0.1490 C.ar    1  UNL1        0.0568
     11 C           2.8385    0.3615    0.5022 C.ar    1  UNL1        0.0087
     12 C           2.1655    1.3205    1.2834 C.ar    1  UNL1       -0.0514
     13 C           0.7690    1.2728    1.3968 C.ar    1  UNL1       -0.0532
     14 C           0.0204    0.2852    0.7455 C.ar    1  UNL1       -0.0124
     15 C          -1.3747    0.2268    0.8487 C.ar    1  UNL1       -0.0279
     16 C          -2.0761   -0.7737    0.1723 C.ar    1  UNL1        0.0721
     17 N          -1.4587   -1.7233   -0.5731 N.ar    1  UNL1       -0.2543
     18 C          -0.1117   -1.6580   -0.6684 C.ar    1  UNL1        0.0379
     19 C           0.6723   -0.6852   -0.0392 C.ar    1  UNL1        0.0242
     20 C          -3.5412   -0.8868    0.2625 C.ar    1  UNL1        0.0081
     21 C          -4.0750   -2.0120    0.9213 C.ar    1  UNL1       -0.0520
     22 C          -5.4466   -2.1662    1.0905 C.ar    1  UNL1       -0.0605
     23 C          -6.3144   -1.1966    0.5995 C.ar    1  UNL1       -0.0540
     24 C          -5.8272   -0.0709   -0.0803 C.ar    1  UNL1       -0.0173
     25 C          -6.7255    0.8868   -0.5803 C.ar    1  UNL1       -0.0540
     26 C          -6.2712    2.0050   -1.2767 C.ar    1  UNL1       -0.0612
     27 C          -4.9108    2.1769   -1.4893 C.ar    1  UNL1       -0.0611
     28 C          -4.0047    1.2349   -0.9960 C.ar    1  UNL1       -0.0534
     29 C          -4.4301    0.0957   -0.2690 C.ar    1  UNL1       -0.0087
     30 C           4.1659    0.0837    0.1549 C.ar    1  UNL1        0.0181
     31 H           8.6431    1.0176    0.3650 H       1  UNL1        0.1035
     32 H           5.1110    2.5240    1.8572 H       1  UNL1        0.1036
     33 H           7.6834   -1.2740   -1.2256 H       1  UNL1        0.0625
     34 H           5.5031   -2.4044   -1.8272 H       1  UNL1        0.0638
     35 H           2.7066   -2.2356   -1.4031 H       1  UNL1        0.1659
     36 H           2.7153    2.1000    1.8015 H       1  UNL1        0.0624
     37 H           0.2724    2.0255    2.0065 H       1  UNL1        0.0624
     38 H          -1.9175    0.9500    1.4510 H       1  UNL1        0.0645
     39 H           0.3251   -2.4371   -1.2842 H       1  UNL1        0.0836
     40 H          -3.4031   -2.7761    1.3099 H       1  UNL1        0.0624
     41 H          -5.8373   -3.0403    1.6043 H       1  UNL1        0.0618
     42 H          -7.3843   -1.3331    0.7428 H       1  UNL1        0.0624
     43 H          -7.7969    0.7641   -0.4346 H       1  UNL1        0.0624
     44 H          -6.9807    2.7333   -1.6602 H       1  UNL1        0.0618
     45 H          -4.5492    3.0383   -2.0446 H       1  UNL1        0.0618
     46 H          -2.9491    1.3958   -1.2049 H       1  UNL1        0.0624
@<TRIPOS>BOND
     1     1     2   ar
     2     2     3   ar
     3     3     4   ar
     4     4     5   ar
     5     5     6   ar
     6     6     7   ar
     7     7     8   ar
     8     8     9   ar
     9     9    10   ar
    10    10    11   ar
    11    11    12   ar
    12    12    13   ar
    13    13    14   ar
    14    14    15   ar
    15    15    16   ar
    16    16    17   ar
    17    17    18   ar
    18    18    19   ar
    19    16    20    1
    20    20    21   ar
    21    21    22   ar
    22    22    23   ar
    23    23    24   ar
    24    24    25   ar
    25    25    26   ar
    26    26    27   ar
    27    27    28   ar
    28    28    29   ar
    29    11    30   ar
    30     5     1   ar
    31    30     8   ar
    32    30     4   ar
    33    19    10   ar
    34    29    20   ar
    35    19    14   ar
    36    29    24   ar
    37     1    31    1
    38     3    32    1
    39     6    33    1
    40     7    34    1
    41     9    35    1
    42    12    36    1
    43    13    37    1
    44    15    38    1
    45    18    39    1
    46    21    40    1
    47    22    41    1
    48    23    42    1
    49    25    43    1
    50    26    44    1
    51    27    45    1
    52    28    46    1
