@<TRIPOS>MOLECULE
*****
 44 50 0 0 0
SMALL
GASTEIGER

@<TRIPOS>ATOM
      1 C           6.5353   -1.1628    0.0609 C.ar    1  UNL1        0.0994
      2 O           5.7392   -2.2175   -0.3198 O.2     1  UNL1       -0.4698
      3 C           4.4341   -1.7855   -0.2850 C.ar    1  UNL1        0.1000
      4 C           4.4436   -0.4863    0.1119 C.ar    1  UNL1        0.0296
      5 C           5.7609   -0.0626    0.3389 C.ar    1  UNL1        0.0206
      6 C           6.2200    1.1815    0.7524 C.ar    1  UNL1       -0.0490
      7 C           5.1672    2.1027    0.9552 C.ar    1  UNL1       -0.0371
      8 C           3.8140    1.7226    0.7388 C.ar    1  UNL1        0.0482
      9 N           2.6354    2.4254    0.8656 N.ar    1  UNL1       -0.3541
     10 C           1.5478    1.6319    0.5429 C.ar    1  UNL1        0.0481
     11 C           0.1857    1.9385    0.5353 C.ar    1  UNL1       -0.0300
     12 C          -0.7357    0.9394    0.1622 C.ar    1  UNL1       -0.0146
     13 C          -2.0938    1.2580    0.1585 C.ar    1  UNL1       -0.0427
     14 C          -3.1230    0.3515   -0.1943 C.ar    1  UNL1        0.0275
     15 C          -4.5282    0.8783   -0.1380 C.ar    1  UNL1        0.1636
     16 N          -4.6848    2.1567    0.2402 N.ar    1  UNL1       -0.2160
     17 C          -5.9387    2.6019    0.2828 C.ar    1  UNL1        0.1200
     18 N          -7.0259    1.9015   -0.0114 N.ar    1  UNL1       -0.2241
     19 C          -6.7635    0.6520   -0.3729 C.ar    1  UNL1        0.1200
     20 N          -5.5571    0.0930   -0.4537 N.ar    1  UNL1       -0.2160
     21 C          -2.7245   -0.9776   -0.5701 C.ar    1  UNL1       -0.0066
     22 C          -3.6322   -2.0078   -0.9516 C.ar    1  UNL1       -0.0533
     23 C          -3.2359   -3.2958   -1.3150 C.ar    1  UNL1       -0.0611
     24 C          -1.8984   -3.6166   -1.3135 C.ar    1  UNL1       -0.0611
     25 C          -0.9699   -2.6456   -0.9484 C.ar    1  UNL1       -0.0534
     26 C          -1.3306   -1.3230   -0.5719 C.ar    1  UNL1       -0.0095
     27 C          -0.3282   -0.3563   -0.2027 C.ar    1  UNL1       -0.0094
     28 C           1.0752   -0.6136   -0.1769 C.ar    1  UNL1       -0.0437
     29 C           2.0180    0.3687    0.1926 C.ar    1  UNL1        0.0087
     30 C           3.4082    0.4631    0.3246 C.ar    1  UNL1        0.0181
     31 H           7.5958   -1.3705    0.0763 H       1  UNL1        0.1035
     32 H           3.6908   -2.5165   -0.5631 H       1  UNL1        0.1036
     33 H           7.2591    1.4391    0.9081 H       1  UNL1        0.0625
     34 H           5.4014    3.1139    1.2809 H       1  UNL1        0.0638
     35 H           2.5716    3.3903    1.1551 H       1  UNL1        0.1659
     36 H          -0.1509    2.9336    0.8137 H       1  UNL1        0.0644
     37 H          -2.3696    2.2736    0.4478 H       1  UNL1        0.0631
     38 H          -6.0834    3.6330    0.5864 H       1  UNL1        0.1048
     39 H          -7.6114    0.0249   -0.6270 H       1  UNL1        0.1048
     40 H          -4.7024   -1.8403   -0.9800 H       1  UNL1        0.0624
     41 H          -3.9804   -4.0356   -1.5958 H       1  UNL1        0.0618
     42 H          -1.5691   -4.6133   -1.5930 H       1  UNL1        0.0618
     43 H           0.0690   -2.9610   -0.9675 H       1  UNL1        0.0624
     44 H           1.4654   -1.5865   -0.4447 H       1  UNL1        0.0631
@<TRIPOS>BOND
     1     1     2   ar
     2     2     3   ar
     3     3     4   ar
     4     4     5   ar
     5     5     6   ar
     6     6     7   ar
     7     7     8   ar
     8     8     9   ar
     9     9    10   ar
    10    10    11   ar
    11    11    12   ar
    12    12    13   ar
    13    13    14   ar
    14    14    15    1
    15    15    16   ar
    16    16    17   ar
    17    17    18   ar
    18    18    19   ar
    19    19    20   ar
    20    14    21   ar
    21    21    22   ar
    22    22    23   ar
    23    23    24   ar
    24    24    25   ar
    25    25    26   ar
    26    26    27   ar
    27    27    28   ar
    28    28    29   ar
    29    29    30   ar
    30     5     1   ar
    31    30     8   ar
    32    30     4   ar
    33    29    10   ar
    34    27    12   ar
    35    20    15   ar
    36    26    21   ar
    37     1    31    1
    38     3    32    1
    39     6    33    1
    40     7    34    1
    41     9    35    1
    42    11    36    1
    43    13    37    1
    44    17    38    1
    45    19    39    1
    46    22    40    1
    47    23    41    1
    48    24    42    1
    49    25    43    1
    50    28    44    1
