@<TRIPOS>MOLECULE
*****
 46 53 0 0 0
SMALL
GASTEIGER

@<TRIPOS>ATOM
      1 C          -6.8051   -1.7829   -0.6884 C.ar    1  UNL1        0.0994
      2 O          -5.9458   -2.6717   -1.2605 O.2     1  UNL1       -0.4698
      3 C          -4.6777   -2.1908   -1.0783 C.ar    1  UNL1        0.1000
      4 C          -4.6996   -1.0144   -0.3663 C.ar    1  UNL1        0.0281
      5 C          -6.0899   -0.7476   -0.1515 C.ar    1  UNL1        0.0205
      6 C          -6.6357    0.3585    0.4655 C.ar    1  UNL1       -0.0504
      7 C          -5.6051    1.2385    0.8442 C.ar    1  UNL1       -0.0533
      8 C          -4.1901    1.0133    0.6403 C.ar    1  UNL1       -0.0166
      9 C          -3.3155    1.9990    1.0715 C.ar    1  UNL1       -0.0534
     10 C          -1.9333    1.8832    0.8908 C.ar    1  UNL1       -0.0528
     11 C          -1.3143    0.7742    0.2782 C.ar    1  UNL1       -0.0090
     12 C          -2.1676   -0.3062   -0.0724 C.ar    1  UNL1       -0.0089
     13 C          -1.5422   -1.5020   -0.4679 C.ar    1  UNL1       -0.0528
     14 C          -0.1558   -1.6478   -0.5543 C.ar    1  UNL1       -0.0534
     15 C           0.7058   -0.5880   -0.3082 C.ar    1  UNL1       -0.0161
     16 C           2.1119   -0.8444   -0.4422 C.ar    1  UNL1       -0.0456
     17 C           3.1431    0.1057   -0.2759 C.ar    1  UNL1       -0.0055
     18 C           4.5500   -0.2022   -0.4446 C.ar    1  UNL1        0.0290
     19 C           5.3686    0.3335   -1.4496 C.ar    1  UNL1        0.0375
     20 N           6.7019    0.0901   -1.6764 N.ar    1  UNL1       -0.2604
     21 C           7.3957   -0.7747   -0.8812 C.ar    1  UNL1        0.0557
     22 C           6.7047   -1.4079    0.1700 C.ar    1  UNL1        0.1185
     23 N           7.2152   -2.2878    1.0466 N.ar    1  UNL1       -0.1892
     24 S           5.9727   -2.7100    2.0627 S.2     1  UNL1        0.1165
     25 N           4.7357   -1.8037    1.4321 N.ar    1  UNL1       -0.1901
     26 C           5.2423   -1.1156    0.3921 C.ar    1  UNL1        0.1105
     27 C           2.6107    1.3713    0.0016 C.ar    1  UNL1       -0.0024
     28 C           3.3964    2.4879    0.1883 C.ar    1  UNL1       -0.0160
     29 S           2.4575    3.9019    0.3887 S.2     1  UNL1       -0.1038
     30 C           0.9933    3.0188    0.2527 C.ar    1  UNL1       -0.0160
     31 C           1.1883    1.6586    0.1477 C.ar    1  UNL1       -0.0020
     32 C           0.1308    0.6736    0.0604 C.ar    1  UNL1       -0.0019
     33 C          -3.6160   -0.1614    0.0362 C.ar    1  UNL1        0.0006
     34 H          -7.8547   -2.0274   -0.7688 H       1  UNL1        0.1035
     35 H          -3.9189   -2.8052   -1.5356 H       1  UNL1        0.1036
     36 H          -7.6856    0.5566    0.6235 H       1  UNL1        0.0625
     37 H          -5.9153    2.1677    1.3286 H       1  UNL1        0.0624
     38 H          -3.6899    2.8943    1.5661 H       1  UNL1        0.0624
     39 H          -1.3396    2.6809    1.3225 H       1  UNL1        0.0624
     40 H          -2.1200   -2.3966   -0.6603 H       1  UNL1        0.0624
     41 H           0.2332   -2.6265   -0.8332 H       1  UNL1        0.0624
     42 H           2.4199   -1.8624   -0.6980 H       1  UNL1        0.0630
     43 H           4.9399    1.0332   -2.1697 H       1  UNL1        0.0836
     44 H           8.4431   -0.9349   -1.0990 H       1  UNL1        0.0852
     45 H           4.4740    2.5764    0.1944 H       1  UNL1        0.0700
     46 H           0.0831    3.5946    0.2441 H       1  UNL1        0.0700
@<TRIPOS>BOND
     1     1     2   ar
     2     2     3   ar
     3     3     4   ar
     4     4     5   ar
     5     5     6   ar
     6     6     7   ar
     7     7     8   ar
     8     8     9   ar
     9     9    10   ar
    10    10    11   ar
    11    11    12   ar
    12    12    13   ar
    13    13    14   ar
    14    14    15   ar
    15    15    16   ar
    16    16    17   ar
    17    17    18    1
    18    18    19   ar
    19    19    20   ar
    20    20    21   ar
    21    21    22   ar
    22    22    23   ar
    23    23    24   ar
    24    24    25   ar
    25    25    26   ar
    26    17    27   ar
    27    27    28   ar
    28    28    29   ar
    29    29    30   ar
    30    30    31   ar
    31    31    32   ar
    32    12    33   ar
    33     5     1   ar
    34    33     8   ar
    35    33     4   ar
    36    32    11   ar
    37    32    15   ar
    38    26    18   ar
    39    31    27   ar
    40    26    22   ar
    41     1    34    1
    42     3    35    1
    43     6    36    1
    44     7    37    1
    45     9    38    1
    46    10    39    1
    47    13    40    1
    48    14    41    1
    49    16    42    1
    50    19    43    1
    51    21    44    1
    52    28    45    1
    53    30    46    1
