@<TRIPOS>MOLECULE
*****
 42 48 0 0 0
SMALL
GASTEIGER

@<TRIPOS>ATOM
      1 C          -5.9044    1.6271   -0.9289 C.ar    1  UNL1        0.0994
      2 O          -4.9727    2.6229   -0.9512 O.2     1  UNL1       -0.4698
      3 C          -3.7507    2.0460   -0.7375 C.ar    1  UNL1        0.1000
      4 C          -3.8871    0.6995   -0.5067 C.ar    1  UNL1        0.0282
      5 C          -5.2776    0.4308   -0.7099 C.ar    1  UNL1        0.0205
      6 C          -5.8840   -0.8093   -0.7350 C.ar    1  UNL1       -0.0504
      7 C          -4.9023   -1.8118   -0.6078 C.ar    1  UNL1       -0.0519
      8 C          -3.4838   -1.5748   -0.4189 C.ar    1  UNL1        0.0015
      9 C          -2.6117   -2.6541   -0.3929 C.ar    1  UNL1        0.0360
     10 N          -1.2635   -2.5914   -0.2589 N.ar    1  UNL1       -0.2543
     11 C          -0.6790   -1.4096   -0.0527 C.ar    1  UNL1        0.0729
     12 C           0.7349   -1.4528    0.1071 C.ar    1  UNL1       -0.0273
     13 C           1.5855   -0.3595    0.4036 C.ar    1  UNL1       -0.0045
     14 C           3.0162   -0.4489    0.5847 C.ar    1  UNL1       -0.0089
     15 C           3.6294   -1.1729    1.6411 C.ar    1  UNL1       -0.0534
     16 C           5.0450   -1.2693    1.8418 C.ar    1  UNL1       -0.0606
     17 C           6.0016   -0.6581    1.0054 C.ar    1  UNL1       -0.0535
     18 C           5.4022    0.0430   -0.0402 C.ar    1  UNL1       -0.0103
     19 C           6.1352    0.7104   -0.9900 C.ar    1  UNL1       -0.0166
     20 S           5.1143    1.4585   -2.1519 S.2     1  UNL1       -0.1039
     21 C           3.6887    0.8821   -1.3811 C.ar    1  UNL1       -0.0160
     22 C           3.9774    0.1489   -0.2524 C.ar    1  UNL1       -0.0032
     23 C           0.8165    0.7832    0.5913 C.ar    1  UNL1        0.0283
     24 C           1.2474    2.0084    1.0306 C.ar    1  UNL1        0.1000
     25 O           0.1747    2.8303    1.2070 O.2     1  UNL1       -0.4698
     26 C          -0.9442    2.1188    0.8765 C.ar    1  UNL1        0.1001
     27 C          -0.6021    0.8704    0.4206 C.ar    1  UNL1        0.0302
     28 C          -1.4521   -0.2037    0.0159 C.ar    1  UNL1        0.0195
     29 C          -2.8770   -0.2850   -0.2759 C.ar    1  UNL1        0.0041
     30 H          -6.9227    1.9349   -1.1203 H       1  UNL1        0.1035
     31 H          -2.9232    2.7324   -0.8256 H       1  UNL1        0.1036
     32 H          -6.9332   -1.0098   -0.8965 H       1  UNL1        0.0625
     33 H          -5.2474   -2.8465   -0.6759 H       1  UNL1        0.0624
     34 H          -2.9819   -3.6713   -0.5110 H       1  UNL1        0.0836
     35 H           1.2025   -2.4349   -0.0043 H       1  UNL1        0.0645
     36 H           2.9873   -1.6873    2.3589 H       1  UNL1        0.0624
     37 H           5.4002   -1.8509    2.6935 H       1  UNL1        0.0618
     38 H           7.0670   -0.7439    1.1728 H       1  UNL1        0.0624
     39 H           7.2090    0.8026   -1.0782 H       1  UNL1        0.0699
     40 H           2.7258    1.1221   -1.8107 H       1  UNL1        0.0700
     41 H           2.2075    2.4310    1.2943 H       1  UNL1        0.1036
     42 H          -1.8675    2.6425    1.0695 H       1  UNL1        0.1036
@<TRIPOS>BOND
     1     1     2   ar
     2     2     3   ar
     3     3     4   ar
     4     4     5   ar
     5     5     6   ar
     6     6     7   ar
     7     7     8   ar
     8     8     9   ar
     9     9    10   ar
    10    10    11   ar
    11    11    12   ar
    12    12    13   ar
    13    13    14    1
    14    14    15   ar
    15    15    16   ar
    16    16    17   ar
    17    17    18   ar
    18    18    19   ar
    19    19    20   ar
    20    20    21   ar
    21    21    22   ar
    22    13    23   ar
    23    23    24   ar
    24    24    25   ar
    25    25    26   ar
    26    26    27   ar
    27    27    28   ar
    28    28    29   ar
    29     5     1   ar
    30    29     8   ar
    31    29     4   ar
    32    28    11   ar
    33    22    14   ar
    34    27    23   ar
    35    22    18   ar
    36     1    30    1
    37     3    31    1
    38     6    32    1
    39     7    33    1
    40     9    34    1
    41    12    35    1
    42    15    36    1
    43    16    37    1
    44    17    38    1
    45    19    39    1
    46    21    40    1
    47    24    41    1
    48    26    42    1
