@<TRIPOS>MOLECULE
*****
 44 51 0 0 0
SMALL
GASTEIGER

@<TRIPOS>ATOM
      1 C          -6.8184   -1.0590   -1.0857 C.ar    1  UNL1        0.0994
      2 O          -5.9285   -1.7909   -1.8126 O.2     1  UNL1       -0.4698
      3 C          -4.6707   -1.4111   -1.4282 C.ar    1  UNL1        0.1000
      4 C          -4.7340   -0.4392   -0.4582 C.ar    1  UNL1        0.0282
      5 C          -6.1342   -0.2220   -0.2474 C.ar    1  UNL1        0.0205
      6 C          -6.7117    0.6667    0.6374 C.ar    1  UNL1       -0.0504
      7 C          -5.7044    1.3602    1.3340 C.ar    1  UNL1       -0.0519
      8 C          -4.2797    1.1703    1.1504 C.ar    1  UNL1        0.0015
      9 C          -3.3987    1.9254    1.9080 C.ar    1  UNL1        0.0360
     10 N          -2.0499    1.8591    1.8475 N.ar    1  UNL1       -0.2543
     11 C          -1.4869    0.9996    0.9919 C.ar    1  UNL1        0.0722
     12 C          -0.0959    0.9677    0.9659 C.ar    1  UNL1       -0.0279
     13 C           0.6391    0.1212    0.1239 C.ar    1  UNL1       -0.0131
     14 C           2.0643    0.1254    0.1341 C.ar    1  UNL1       -0.0435
     15 C           2.9180   -0.6836   -0.6700 C.ar    1  UNL1        0.0196
     16 C           4.4051   -0.6018   -0.5821 C.ar    1  UNL1        0.0489
     17 S           5.4307   -1.5997   -1.5734 S.2     1  UNL1       -0.0922
     18 C           6.8832   -0.9751   -0.9441 C.ar    1  UNL1        0.0038
     19 C           6.6367   -0.0243    0.0036 C.ar    1  UNL1        0.0968
     20 N           7.6377    0.6272    0.6580 N.ar    1  UNL1       -0.2514
     21 C           7.1333    1.5204    1.5472 C.ar    1  UNL1        0.0464
     22 C           5.7726    1.7469    1.7674 C.ar    1  UNL1        0.0464
     23 N           4.7573    1.1086    1.1261 N.ar    1  UNL1       -0.2508
     24 C           5.2212    0.1966    0.2180 C.ar    1  UNL1        0.1040
     25 C           2.2048   -1.5630   -1.5511 C.ar    1  UNL1        0.1087
     26 N           2.7077   -2.4473   -2.4321 N.ar    1  UNL1       -0.1901
     27 S           1.4532   -3.2013   -3.1901 S.2     1  UNL1        0.1165
     28 N           0.1715   -2.4620   -2.4573 N.ar    1  UNL1       -0.1901
     29 C           0.6806   -1.5815   -1.5760 C.ar    1  UNL1        0.1082
     30 C          -0.0907   -0.7250   -0.7241 C.ar    1  UNL1        0.0110
     31 C          -1.5041   -0.7062   -0.7112 C.ar    1  UNL1       -0.0421
     32 C          -2.2326    0.1529    0.1434 C.ar    1  UNL1        0.0094
     33 C          -3.6777    0.2455    0.2297 C.ar    1  UNL1        0.0035
     34 H          -7.8618   -1.2561   -1.2869 H       1  UNL1        0.1035
     35 H          -3.8885   -1.9380   -1.9508 H       1  UNL1        0.1036
     36 H          -7.7693    0.8251    0.7911 H       1  UNL1        0.0625
     37 H          -6.0367    2.0977    2.0688 H       1  UNL1        0.0624
     38 H          -3.7625    2.6522    2.6319 H       1  UNL1        0.0836
     39 H           0.4317    1.6418    1.6411 H       1  UNL1        0.0645
     40 H           2.5235    0.8239    0.8335 H       1  UNL1        0.0631
     41 H           7.8424   -1.3289   -1.2930 H       1  UNL1        0.0715
     42 H           7.8781    2.0786    2.1074 H       1  UNL1        0.0845
     43 H           5.4565    2.4835    2.5011 H       1  UNL1        0.0845
     44 H          -2.0124   -1.3809   -1.3870 H       1  UNL1        0.0631
@<TRIPOS>BOND
     1     1     2   ar
     2     2     3   ar
     3     3     4   ar
     4     4     5   ar
     5     5     6   ar
     6     6     7   ar
     7     7     8   ar
     8     8     9   ar
     9     9    10   ar
    10    10    11   ar
    11    11    12   ar
    12    12    13   ar
    13    13    14   ar
    14    14    15   ar
    15    15    16    1
    16    16    17   ar
    17    17    18   ar
    18    18    19   ar
    19    19    20   ar
    20    20    21   ar
    21    21    22   ar
    22    22    23   ar
    23    23    24   ar
    24    15    25   ar
    25    25    26   ar
    26    26    27   ar
    27    27    28   ar
    28    28    29   ar
    29    29    30   ar
    30    30    31   ar
    31    31    32   ar
    32    32    33   ar
    33     5     1   ar
    34    33     8   ar
    35    33     4   ar
    36    32    11   ar
    37    30    13   ar
    38    24    16   ar
    39    29    25   ar
    40    24    19   ar
    41     1    34    1
    42     3    35    1
    43     6    36    1
    44     7    37    1
    45     9    38    1
    46    12    39    1
    47    14    40    1
    48    18    41    1
    49    21    42    1
    50    22    43    1
    51    31    44    1
