@<TRIPOS>MOLECULE
*****
 41 47 0 0 0
SMALL
GASTEIGER

@<TRIPOS>ATOM
      1 C          -5.8062   -0.7309    0.2704 C.ar    1  UNL1        0.0994
      2 O          -5.4762    0.3028    1.0988 O.2     1  UNL1       -0.4698
      3 C          -4.1331    0.5244    0.9627 C.ar    1  UNL1        0.1000
      4 C          -3.6058   -0.3059    0.0038 C.ar    1  UNL1        0.0296
      5 C          -4.6818   -1.1611   -0.3795 C.ar    1  UNL1        0.0206
      6 C          -4.5951   -2.2564   -1.2129 C.ar    1  UNL1       -0.0490
      7 C          -3.2433   -2.4557   -1.5733 C.ar    1  UNL1       -0.0350
      8 C          -2.1331   -1.6419   -1.1930 C.ar    1  UNL1        0.0723
      9 N          -0.9389   -2.0612   -1.5966 N.ar    1  UNL1       -0.2543
     10 C           0.1715   -1.3873   -1.1857 C.ar    1  UNL1        0.0366
     11 C           0.2483   -0.2289   -0.4032 C.ar    1  UNL1        0.0097
     12 C          -1.0444    0.3454   -0.1871 C.ar    1  UNL1        0.0022
     13 C          -0.9111    1.7155    0.1851 C.ar    1  UNL1       -0.0019
     14 C          -1.9377    2.6312    0.1074 C.ar    1  UNL1       -0.0160
     15 S          -1.4622    4.2023    0.5947 S.2     1  UNL1       -0.1038
     16 C           0.1689    3.7111    0.7559 C.ar    1  UNL1       -0.0160
     17 C           0.3421    2.3767    0.4538 C.ar    1  UNL1       -0.0025
     18 C           1.6077    1.7360    0.4127 C.ar    1  UNL1       -0.0084
     19 C           2.8260    2.4021    0.6691 C.ar    1  UNL1       -0.0528
     20 C           4.0255    1.7147    0.6074 C.ar    1  UNL1       -0.0534
     21 C           4.0381    0.3423    0.3838 C.ar    1  UNL1       -0.0173
     22 C           5.2757   -0.3232    0.4270 C.ar    1  UNL1       -0.0540
     23 C           5.3538   -1.7061    0.3187 C.ar    1  UNL1       -0.0612
     24 C           4.1871   -2.4380    0.1996 C.ar    1  UNL1       -0.0611
     25 C           2.9535   -1.7786    0.1395 C.ar    1  UNL1       -0.0534
     26 C           2.8205   -0.3638    0.1594 C.ar    1  UNL1       -0.0095
     27 C           1.5516    0.3544    0.0454 C.ar    1  UNL1       -0.0004
     28 C          -2.2496   -0.4444   -0.4257 C.ar    1  UNL1        0.0194
     29 H          -6.8408   -1.0424    0.3004 H       1  UNL1        0.1035
     30 H          -3.7361    1.2765    1.6292 H       1  UNL1        0.1036
     31 H          -5.3990   -2.9155   -1.5055 H       1  UNL1        0.0625
     32 H          -3.0170   -3.3293   -2.1895 H       1  UNL1        0.0639
     33 H           1.0717   -1.8243   -1.6134 H       1  UNL1        0.0836
     34 H          -2.9545    2.4998   -0.2288 H       1  UNL1        0.0700
     35 H           0.8999    4.4558    1.0344 H       1  UNL1        0.0700
     36 H           2.8584    3.4618    0.9026 H       1  UNL1        0.0624
     37 H           4.9495    2.2596    0.7903 H       1  UNL1        0.0624
     38 H           6.1988    0.2355    0.5718 H       1  UNL1        0.0624
     39 H           6.3164   -2.2073    0.3662 H       1  UNL1        0.0618
     40 H           4.2235   -3.5242    0.1695 H       1  UNL1        0.0618
     41 H           2.0773   -2.4217    0.1348 H       1  UNL1        0.0624
@<TRIPOS>BOND
     1     1     2   ar
     2     2     3   ar
     3     3     4   ar
     4     4     5   ar
     5     5     6   ar
     6     6     7   ar
     7     7     8   ar
     8     8     9   ar
     9     9    10   ar
    10    10    11   ar
    11    11    12   ar
    12    12    13   ar
    13    13    14   ar
    14    14    15   ar
    15    15    16   ar
    16    16    17   ar
    17    17    18   ar
    18    18    19   ar
    19    19    20   ar
    20    20    21   ar
    21    21    22   ar
    22    22    23   ar
    23    23    24   ar
    24    24    25   ar
    25    25    26   ar
    26    26    27   ar
    27    12    28   ar
    28     5     1   ar
    29    28     8   ar
    30    28     4   ar
    31    27    11   ar
    32    17    13   ar
    33    27    18   ar
    34    26    21   ar
    35     1    29    1
    36     3    30    1
    37     6    31    1
    38     7    32    1
    39    10    33    1
    40    14    34    1
    41    16    35    1
    42    19    36    1
    43    20    37    1
    44    22    38    1
    45    23    39    1
    46    24    40    1
    47    25    41    1
