@<TRIPOS>MOLECULE
*****
 42 47 0 0 0
SMALL
GASTEIGER

@<TRIPOS>ATOM
      1 SI          2.6315   -2.3558    0.4855 Si      1  UNL1        0.0000
      2 C           1.2701   -0.9896    0.2451 C.2     1  UNL1        0.0000
      3 C           1.8541    0.2299    0.1324 C.2     1  UNL1        0.0000
      4 C           3.3089    0.2087    0.2173 C.ar    1  UNL1        0.0000
      5 C           3.9718   -1.0385    0.4039 C.ar    1  UNL1        0.0000
      6 C           5.3931   -1.1980    0.5034 C.ar    1  UNL1        0.0000
      7 C           6.2981   -0.1075    0.4243 C.ar    1  UNL1        0.0000
      8 C           5.6243    1.1000    0.2419 C.ar    1  UNL1        0.0000
      9 C           6.1711    2.3491    0.1235 C.ar    1  UNL1        0.0000
     10 O           5.1711    3.2713   -0.0433 O.2     1  UNL1        0.0000
     11 C           3.9768    2.5984   -0.0305 C.ar    1  UNL1        0.0000
     12 C           4.2085    1.2606    0.1425 C.ar    1  UNL1        0.0000
     13 C          -0.1799   -1.3028    0.2004 C.ar    1  UNL1        0.0000
     14 C          -0.6828   -2.6004    0.3270 C.ar    1  UNL1        0.0000
     15 C          -2.0567   -2.8544    0.2796 C.ar    1  UNL1        0.0000
     16 C          -2.9820   -1.8193    0.1035 C.ar    1  UNL1        0.0000
     17 C          -4.3471   -2.1154    0.0616 C.ar    1  UNL1        0.0000
     18 C          -5.2895   -1.1069   -0.1123 C.ar    1  UNL1        0.0000
     19 C          -4.8934    0.2252   -0.2491 C.ar    1  UNL1        0.0000
     20 C          -5.8704    1.2204   -0.4233 C.ar    1  UNL1        0.0000
     21 C          -5.5161    2.5592   -0.5632 C.ar    1  UNL1        0.0000
     22 C          -4.1778    2.9180   -0.5303 C.ar    1  UNL1        0.0000
     23 C          -3.1965    1.9366   -0.3575 C.ar    1  UNL1        0.0000
     24 C          -3.5152    0.5620   -0.2113 C.ar    1  UNL1        0.0000
     25 C          -2.5381   -0.4847   -0.0309 C.ar    1  UNL1        0.0000
     26 C          -1.1298   -0.2738    0.0237 C.ar    1  UNL1        0.0000
     27 H           2.5329   -2.9988    1.8211 H       1  UNL1        0.0000
     28 H           2.6736   -3.2959   -0.6641 H       1  UNL1        0.0000
     29 H           1.3400    1.1691   -0.0090 H       1  UNL1        0.0000
     30 H           5.8063   -2.1971    0.6462 H       1  UNL1        0.0000
     31 H           7.3707   -0.2209    0.4986 H       1  UNL1        0.0000
     32 H           7.1750    2.7488    0.1326 H       1  UNL1        0.0000
     33 H           3.0972    3.2133   -0.1538 H       1  UNL1        0.0000
     34 H          -0.0349   -3.4600    0.4664 H       1  UNL1        0.0000
     35 H          -2.3963   -3.8834    0.3833 H       1  UNL1        0.0000
     36 H          -4.6950   -3.1411    0.1645 H       1  UNL1        0.0000
     37 H          -6.3431   -1.3769   -0.1397 H       1  UNL1        0.0000
     38 H          -6.9258    0.9566   -0.4515 H       1  UNL1        0.0000
     39 H          -6.2836    3.3163   -0.6972 H       1  UNL1        0.0000
     40 H          -3.8894    3.9603   -0.6385 H       1  UNL1        0.0000
     41 H          -2.1647    2.2747   -0.3395 H       1  UNL1        0.0000
     42 H          -0.7673    0.7429   -0.0773 H       1  UNL1        0.0000
@<TRIPOS>BOND
     1     1     2    1
     2     2     3    2
     3     3     4    1
     4     4     5   ar
     5     5     6   ar
     6     6     7   ar
     7     7     8   ar
     8     8     9   ar
     9     9    10   ar
    10    10    11   ar
    11    11    12   ar
    12     2    13    1
    13    13    14   ar
    14    14    15   ar
    15    15    16   ar
    16    16    17   ar
    17    17    18   ar
    18    18    19   ar
    19    19    20   ar
    20    20    21   ar
    21    21    22   ar
    22    22    23   ar
    23    23    24   ar
    24    24    25   ar
    25    25    26   ar
    26     5     1    1
    27    12     8   ar
    28    26    13   ar
    29    12     4   ar
    30    25    16   ar
    31    24    19   ar
    32     1    27    1
    33     1    28    1
    34     3    29    1
    35     6    30    1
    36     7    31    1
    37     9    32    1
    38    11    33    1
    39    14    34    1
    40    15    35    1
    41    17    36    1
    42    18    37    1
    43    20    38    1
    44    21    39    1
    45    22    40    1
    46    23    41    1
    47    26    42    1
