@<TRIPOS>MOLECULE
*****
 47 53 0 0 0
SMALL
GASTEIGER

@<TRIPOS>ATOM
      1 SI         -6.1412   -2.1928   -2.2664 Si      1  UNL1        0.0000
      2 C          -7.0544   -1.3068   -0.9014 C.2     1  UNL1        0.0000
      3 C          -6.2040   -0.6109   -0.1235 C.ar    1  UNL1        0.0000
      4 C          -6.6212    0.1752    1.0126 C.ar    1  UNL1        0.0000
      5 C          -5.7009    0.8366    1.7300 C.ar    1  UNL1        0.0000
      6 C          -4.2638    0.7895    1.3975 C.ar    1  UNL1        0.0000
      7 N          -3.4973    1.5168    2.2324 N.ar    1  UNL1        0.0000
      8 C          -2.1741    1.5166    1.9848 C.ar    1  UNL1        0.0000
      9 C          -1.5387    0.8298    0.9429 C.ar    1  UNL1        0.0000
     10 C          -0.1165    0.8634    0.7231 C.ar    1  UNL1        0.0000
     11 C           0.8173    1.5825    1.5114 C.ar    1  UNL1        0.0000
     12 C           2.1918    1.5673    1.2374 C.ar    1  UNL1        0.0000
     13 C           2.7034    0.8302    0.1678 C.ar    1  UNL1        0.0000
     14 C           1.7947    0.1201   -0.6252 C.ar    1  UNL1        0.0000
     15 C           0.4119    0.1333   -0.3541 C.ar    1  UNL1        0.0000
     16 C          -0.4796   -0.5741   -1.1415 C.ar    1  UNL1        0.0000
     17 N          -1.8142   -0.6120   -0.9434 N.ar    1  UNL1        0.0000
     18 C          -2.3677    0.0730    0.0804 C.ar    1  UNL1        0.0000
     19 C          -3.7584    0.0498    0.3082 C.ar    1  UNL1        0.0000
     20 C          -4.7710   -0.6954   -0.5055 C.ar    1  UNL1        0.0000
     21 C          -4.5585   -1.4710   -1.5905 C.2     1  UNL1        0.0000
     22 C           4.1307    0.8204   -0.1210 C.ar    1  UNL1        0.0000
     23 C           4.8997    1.9771   -0.4286 C.ar    1  UNL1        0.0000
     24 C           6.3104    1.9680   -0.7216 C.ar    1  UNL1        0.0000
     25 C           7.1106    0.8040   -0.7350 C.ar    1  UNL1        0.0000
     26 C           6.3472   -0.3128   -0.4252 C.ar    1  UNL1        0.0000
     27 C           6.8112   -1.5994   -0.3348 C.ar    1  UNL1        0.0000
     28 N           5.7354   -2.3885    0.0129 N.ar    1  UNL1        0.0000
     29 C           4.5981   -1.6177    0.1429 C.ar    1  UNL1        0.0000
     30 C           4.9482   -0.3179   -0.1361 C.ar    1  UNL1        0.0000
     31 H          -6.2089   -3.6674   -2.1224 H       1  UNL1        0.0000
     32 H          -6.4878   -1.6657   -3.6087 H       1  UNL1        0.0000
     33 H          -8.1254   -1.3803   -0.8004 H       1  UNL1        0.0000
     34 H          -7.6726    0.2234    1.2741 H       1  UNL1        0.0000
     35 H          -5.9823    1.4359    2.5888 H       1  UNL1        0.0000
     36 H          -1.6177    2.1214    2.6943 H       1  UNL1        0.0000
     37 H           0.4960    2.1744    2.3645 H       1  UNL1        0.0000
     38 H           2.8645    2.1322    1.8809 H       1  UNL1        0.0000
     39 H           2.1719   -0.4494   -1.4745 H       1  UNL1        0.0000
     40 H          -0.1409   -1.1595   -1.9930 H       1  UNL1        0.0000
     41 H          -3.6217   -1.6974   -2.0718 H       1  UNL1        0.0000
     42 H           4.3922    2.9428   -0.4582 H       1  UNL1        0.0000
     43 H           6.7870    2.9224   -0.9479 H       1  UNL1        0.0000
     44 H           8.1685    0.8072   -0.9530 H       1  UNL1        0.0000
     45 H           7.7924   -2.0323   -0.4736 H       1  UNL1        0.0000
     46 H           5.7757   -3.3883    0.1624 H       1  UNL1        0.0000
     47 H           3.6597   -2.0736    0.4279 H       1  UNL1        0.0000
@<TRIPOS>BOND
     1     1     2    1
     2     2     3    2
     3     3     4   ar
     4     4     5   ar
     5     5     6   ar
     6     6     7   ar
     7     7     8   ar
     8     8     9   ar
     9     9    10   ar
    10    10    11   ar
    11    11    12   ar
    12    12    13   ar
    13    13    14   ar
    14    14    15   ar
    15    15    16   ar
    16    16    17   ar
    17    17    18   ar
    18    18    19   ar
    19    19    20   ar
    20    20    21    2
    21    13    22    1
    22    22    23   ar
    23    23    24   ar
    24    24    25   ar
    25    25    26   ar
    26    26    27   ar
    27    27    28   ar
    28    28    29   ar
    29    29    30   ar
    30    21     1    1
    31    30    22   ar
    32    20     3   ar
    33    30    26   ar
    34    19     6   ar
    35    18     9   ar
    36    15    10   ar
    37     1    31    1
    38     1    32    1
    39     2    33    1
    40     4    34    1
    41     5    35    1
    42     8    36    1
    43    11    37    1
    44    12    38    1
    45    14    39    1
    46    16    40    1
    47    21    41    1
    48    23    42    1
    49    24    43    1
    50    25    44    1
    51    27    45    1
    52    28    46    1
    53    29    47    1
