@<TRIPOS>MOLECULE
*****
 36 41 0 0 0
SMALL
GASTEIGER

@<TRIPOS>ATOM
      1 C          -6.1372   -0.0431   -0.0298 C.ar    1  UNL1        0.0994
      2 O          -5.7833    0.6813    1.0695 O.2     1  UNL1       -0.4698
      3 C          -4.4154    0.7187    1.1153 C.ar    1  UNL1        0.1000
      4 C          -3.8792    0.0261    0.0571 C.ar    1  UNL1        0.0296
      5 C          -5.0059   -0.4610   -0.6749 C.ar    1  UNL1        0.0206
      6 C          -4.9709   -1.2179   -1.8269 C.ar    1  UNL1       -0.0490
      7 C          -3.6276   -1.4519   -2.1938 C.ar    1  UNL1       -0.0350
      8 C          -2.4666   -0.9945   -1.5072 C.ar    1  UNL1        0.0723
      9 N          -1.3076   -1.3550   -2.0652 N.ar    1  UNL1       -0.2542
     10 C          -0.1531   -0.9658   -1.4823 C.ar    1  UNL1        0.0395
     11 C          -0.0867   -0.2023   -0.3211 C.ar    1  UNL1        0.0437
     12 C           1.1615    0.1596    0.2195 C.ar    1  UNL1        0.1450
     13 O           2.3882   -0.1633   -0.2818 O.2     1  UNL1       -0.4510
     14 C           3.3296    0.3862    0.5467 C.ar    1  UNL1        0.1731
     15 C           2.6995    1.0600    1.5771 C.ar    1  UNL1       -0.0049
     16 C           1.3033    0.9179    1.3721 C.ar    1  UNL1        0.0215
     17 C           0.1431    1.3449    2.0312 C.ar    1  UNL1       -0.0504
     18 C          -1.1130    0.9887    1.4994 C.ar    1  UNL1       -0.0525
     19 C          -1.2684    0.2129    0.3202 C.ar    1  UNL1       -0.0030
     20 C          -2.5111   -0.2012   -0.2998 C.ar    1  UNL1        0.0189
     21 C           4.7261    0.1659    0.2002 C.ar    1  UNL1        0.1986
     22 N           4.9915   -0.5515   -0.8935 N.ar    1  UNL1       -0.2132
     23 C           6.2882   -0.7046   -1.1369 C.ar    1  UNL1        0.1201
     24 N           7.2857   -0.2164   -0.4022 N.ar    1  UNL1       -0.2241
     25 C           6.8885    0.4800    0.6606 C.ar    1  UNL1        0.1201
     26 N           5.6296    0.7102    1.0211 N.ar    1  UNL1       -0.2132
     27 H          -7.1994   -0.1570   -0.1946 H       1  UNL1        0.1035
     28 H          -4.0306    1.2730    1.9557 H       1  UNL1        0.1036
     29 H          -5.8180   -1.5890   -2.3847 H       1  UNL1        0.0625
     30 H          -3.4573   -2.0442   -3.0964 H       1  UNL1        0.0639
     31 H           0.7471   -1.2979   -1.9948 H       1  UNL1        0.0837
     32 H           3.1983    1.5887    2.3775 H       1  UNL1        0.0662
     33 H           0.2035    1.9409    2.9376 H       1  UNL1        0.0625
     34 H          -1.9776    1.3436    2.0464 H       1  UNL1        0.0624
     35 H           6.5594   -1.2804   -2.0154 H       1  UNL1        0.1048
     36 H           7.6658    0.8985    1.2912 H       1  UNL1        0.1048
@<TRIPOS>BOND
     1     1     2   ar
     2     2     3   ar
     3     3     4   ar
     4     4     5   ar
     5     5     6   ar
     6     6     7   ar
     7     7     8   ar
     8     8     9   ar
     9     9    10   ar
    10    10    11   ar
    11    11    12   ar
    12    12    13   ar
    13    13    14   ar
    14    14    15   ar
    15    15    16   ar
    16    16    17   ar
    17    17    18   ar
    18    18    19   ar
    19    19    20   ar
    20    14    21    1
    21    21    22   ar
    22    22    23   ar
    23    23    24   ar
    24    24    25   ar
    25    25    26   ar
    26     5     1   ar
    27    20     8   ar
    28    26    21   ar
    29    20     4   ar
    30    19    11   ar
    31    16    12   ar
    32     1    27    1
    33     3    28    1
    34     6    29    1
    35     7    30    1
    36    10    31    1
    37    15    32    1
    38    17    33    1
    39    18    34    1
    40    23    35    1
    41    25    36    1
