@<TRIPOS>MOLECULE
*****
 41 47 0 0 0
SMALL
GASTEIGER

@<TRIPOS>ATOM
      1 C           7.0851   -0.3421   -0.0601 C.ar    1  UNL1        0.0994
      2 O           6.7430   -1.6584    0.1588 O.2     1  UNL1       -0.4698
      3 C           5.3696   -1.7347    0.1869 C.ar    1  UNL1        0.1001
      4 C           4.8962   -0.4790   -0.0128 C.ar    1  UNL1        0.0327
      5 C           5.9531    0.4286   -0.1731 C.ar    1  UNL1        0.0207
      6 C           5.8961    1.8026   -0.3969 C.ar    1  UNL1       -0.0475
      7 C           4.5669    2.2898   -0.4613 C.ar    1  UNL1       -0.0180
      8 C           3.4802    1.3974   -0.3032 C.ar    1  UNL1        0.1385
      9 O           2.1456    1.7115   -0.3394 O.2     1  UNL1       -0.4526
     10 C           1.4574    0.5394   -0.1401 C.ar    1  UNL1        0.1628
     11 C           2.3303   -0.5394    0.0262 C.ar    1  UNL1        0.1179
     12 N           1.9178   -1.8145    0.2391 N.ar    1  UNL1       -0.2505
     13 C           0.5668   -1.9676    0.2794 C.ar    1  UNL1        0.0362
     14 C          -0.4061   -0.9695    0.1275 C.ar    1  UNL1        0.0051
     15 C          -1.8295   -1.2474    0.1890 C.ar    1  UNL1       -0.0426
     16 C          -2.8981   -0.2954    0.0457 C.ar    1  UNL1        0.0117
     17 C          -4.3378   -0.6164    0.1145 C.ar    1  UNL1        0.0717
     18 C          -4.8256   -1.9085    0.3313 C.ar    1  UNL1       -0.0357
     19 C          -6.2023   -2.1375    0.3843 C.ar    1  UNL1       -0.0583
     20 C          -7.0763   -1.0757    0.2206 C.ar    1  UNL1       -0.0436
     21 C          -6.5315    0.1740    0.0101 C.ar    1  UNL1        0.0283
     22 N          -5.2019    0.4159   -0.0445 N.ar    1  UNL1       -0.2550
     23 C          -2.3383    0.9810   -0.1691 C.ar    1  UNL1        0.0297
     24 C          -2.9703    2.1871   -0.3590 C.ar    1  UNL1        0.1000
     25 O          -2.0546    3.1865   -0.5326 O.2     1  UNL1       -0.4698
     26 C          -0.8150    2.6242   -0.4549 C.ar    1  UNL1        0.1001
     27 C          -0.9343    1.2771   -0.2335 C.ar    1  UNL1        0.0318
     28 C           0.0856    0.3429   -0.0925 C.ar    1  UNL1        0.0387
     29 C           3.5857    0.0384   -0.0825 C.ar    1  UNL1        0.0569
     30 H           8.1473   -0.1469   -0.1040 H       1  UNL1        0.1035
     31 H           4.9442   -2.7142    0.3517 H       1  UNL1        0.1036
     32 H           6.7581    2.4469   -0.5119 H       1  UNL1        0.0626
     33 H           4.3767    3.3456   -0.6317 H       1  UNL1        0.0655
     34 H           0.2623   -2.9997    0.4515 H       1  UNL1        0.0836
     35 H          -2.0945   -2.2911    0.3625 H       1  UNL1        0.0631
     36 H          -4.1653   -2.7569    0.4625 H       1  UNL1        0.0639
     37 H          -6.5837   -3.1408    0.5527 H       1  UNL1        0.0619
     38 H          -8.1502   -1.2171    0.2559 H       1  UNL1        0.0633
     39 H          -7.1648    1.0461   -0.1254 H       1  UNL1        0.0830
     40 H          -4.0009    2.5095   -0.3999 H       1  UNL1        0.1036
     41 H           0.0131    3.3084   -0.5760 H       1  UNL1        0.1036
@<TRIPOS>BOND
     1     1     2   ar
     2     2     3   ar
     3     3     4   ar
     4     4     5   ar
     5     5     6   ar
     6     6     7   ar
     7     7     8   ar
     8     8     9   ar
     9     9    10   ar
    10    10    11   ar
    11    11    12   ar
    12    12    13   ar
    13    13    14   ar
    14    14    15   ar
    15    15    16   ar
    16    16    17    1
    17    17    18   ar
    18    18    19   ar
    19    19    20   ar
    20    20    21   ar
    21    21    22   ar
    22    16    23   ar
    23    23    24   ar
    24    24    25   ar
    25    25    26   ar
    26    26    27   ar
    27    27    28   ar
    28    11    29   ar
    29     5     1   ar
    30    29     8   ar
    31    29     4   ar
    32    28    10   ar
    33    28    14   ar
    34    22    17   ar
    35    27    23   ar
    36     1    30    1
    37     3    31    1
    38     6    32    1
    39     7    33    1
    40    13    34    1
    41    15    35    1
    42    18    36    1
    43    19    37    1
    44    20    38    1
    45    21    39    1
    46    24    40    1
    47    26    41    1
