@<TRIPOS>MOLECULE
*****
 43 50 0 0 0
SMALL
GASTEIGER

@<TRIPOS>ATOM
      1 C          -7.3621   -0.8033   -0.8649 C.ar    1  UNL1        0.0994
      2 O          -7.0542    0.0246   -1.9220 O.2     1  UNL1       -0.4698
      3 C          -5.7117    0.3163   -1.8478 C.ar    1  UNL1        0.1001
      4 C          -5.2228   -0.3294   -0.7593 C.ar    1  UNL1        0.0327
      5 C          -6.2386   -1.0481   -0.1127 C.ar    1  UNL1        0.0207
      6 C          -6.1547   -1.8377    1.0322 C.ar    1  UNL1       -0.0475
      7 C          -4.8441   -1.8819    1.5692 C.ar    1  UNL1       -0.0180
      8 C          -3.7988   -1.1667    0.9382 C.ar    1  UNL1        0.1385
      9 O          -2.4863   -1.1091    1.3324 O.2     1  UNL1       -0.4526
     10 C          -1.8372   -0.3029    0.4293 C.ar    1  UNL1        0.1628
     11 C          -2.7131    0.1682   -0.5528 C.ar    1  UNL1        0.1179
     12 N          -2.3366    0.9851   -1.5690 N.ar    1  UNL1       -0.2505
     13 C          -1.0182    1.3200   -1.5636 C.ar    1  UNL1        0.0362
     14 C          -0.0456    0.9160   -0.6400 C.ar    1  UNL1        0.0051
     15 C           1.3359    1.3395   -0.7333 C.ar    1  UNL1       -0.0435
     16 C           2.3665    0.9596    0.1727 C.ar    1  UNL1        0.0022
     17 C           3.7512    1.3893    0.0798 C.ar    1  UNL1        0.0475
     18 S           4.1045    3.0801    0.0652 S.2     1  UNL1       -0.0923
     19 C           5.7963    2.8200   -0.0395 C.ar    1  UNL1        0.0038
     20 C           6.0930    1.4826   -0.0697 C.ar    1  UNL1        0.0968
     21 N           7.3666    1.0088   -0.1569 N.ar    1  UNL1       -0.2514
     22 C           7.3719   -0.3527   -0.1748 C.ar    1  UNL1        0.0464
     23 C           6.2326   -1.1646   -0.1125 C.ar    1  UNL1        0.0464
     24 N           4.9515   -0.7132   -0.0237 N.ar    1  UNL1       -0.2508
     25 C           4.9142    0.6514   -0.0020 C.ar    1  UNL1        0.1039
     26 C           1.8753    0.1182    1.1761 C.ar    1  UNL1        0.0288
     27 C           2.5407   -0.4440    2.2357 C.ar    1  UNL1        0.1000
     28 O           1.6738   -1.1906    2.9856 O.2     1  UNL1       -0.4698
     29 C           0.4411   -1.1043    2.4000 C.ar    1  UNL1        0.1001
     30 C           0.5146   -0.3076    1.2876 C.ar    1  UNL1        0.0318
     31 C          -0.4992    0.0578    0.4044 C.ar    1  UNL1        0.0387
     32 C          -3.9298   -0.3946   -0.1991 C.ar    1  UNL1        0.0569
     33 H          -8.3976   -1.1082   -0.8094 H       1  UNL1        0.1035
     34 H          -5.3153    0.9632   -2.6173 H       1  UNL1        0.1036
     35 H          -6.9853   -2.3679    1.4800 H       1  UNL1        0.0626
     36 H          -4.6365   -2.4623    2.4636 H       1  UNL1        0.0655
     37 H          -0.7426    1.9760   -2.3891 H       1  UNL1        0.0836
     38 H           1.6100    1.9925   -1.5649 H       1  UNL1        0.0631
     39 H           6.4849    3.6516   -0.0761 H       1  UNL1        0.0715
     40 H           8.3582   -0.8034   -0.2441 H       1  UNL1        0.0845
     41 H           6.3331   -2.2464   -0.1339 H       1  UNL1        0.0845
     42 H           3.5617   -0.4289    2.5903 H       1  UNL1        0.1036
     43 H          -0.3474   -1.6531    2.8961 H       1  UNL1        0.1036
@<TRIPOS>BOND
     1     1     2   ar
     2     2     3   ar
     3     3     4   ar
     4     4     5   ar
     5     5     6   ar
     6     6     7   ar
     7     7     8   ar
     8     8     9   ar
     9     9    10   ar
    10    10    11   ar
    11    11    12   ar
    12    12    13   ar
    13    13    14   ar
    14    14    15   ar
    15    15    16   ar
    16    16    17    1
    17    17    18   ar
    18    18    19   ar
    19    19    20   ar
    20    20    21   ar
    21    21    22   ar
    22    22    23   ar
    23    23    24   ar
    24    24    25   ar
    25    16    26   ar
    26    26    27   ar
    27    27    28   ar
    28    28    29   ar
    29    29    30   ar
    30    30    31   ar
    31    11    32   ar
    32     5     1   ar
    33    32     8   ar
    34    32     4   ar
    35    31    10   ar
    36    31    14   ar
    37    25    17   ar
    38    30    26   ar
    39    25    20   ar
    40     1    33    1
    41     3    34    1
    42     6    35    1
    43     7    36    1
    44    13    37    1
    45    15    38    1
    46    19    39    1
    47    22    40    1
    48    23    41    1
    49    27    42    1
    50    29    43    1
