@<TRIPOS>MOLECULE
*****
 47 54 0 0 0
SMALL
GASTEIGER

@<TRIPOS>ATOM
      1 C           2.6672    2.9054    1.5130 C.ar    1  UNL1       -0.0154
      2 S           0.9766    2.9176    1.6984 S.2     1  UNL1       -0.0949
      3 C           0.8013    1.3928    0.9118 C.ar    1  UNL1        0.0343
      4 C          -0.5444    0.8913    0.8001 C.ar    1  UNL1        0.0291
      5 C          -1.1912    0.0679    1.7251 C.ar    1  UNL1       -0.0224
      6 C          -2.5084   -0.2005    1.2742 C.ar    1  UNL1        0.0567
      7 N          -3.6703   -0.8690    1.5760 N.ar    1  UNL1       -0.3520
      8 C          -4.5969   -0.6513    0.5977 C.ar    1  UNL1        0.0751
      9 C          -5.9006   -0.8801    0.0875 C.ar    1  UNL1        0.0417
     10 C          -7.0230   -1.6024    0.4965 C.ar    1  UNL1        0.0387
     11 N          -8.1483   -1.6055   -0.2595 N.ar    1  UNL1       -0.2625
     12 C          -8.1623   -0.8972   -1.4119 C.ar    1  UNL1        0.0295
     13 C          -7.1041   -0.1471   -1.9080 C.ar    1  UNL1       -0.0196
     14 C          -5.9491   -0.1483   -1.1269 C.ar    1  UNL1        0.0519
     15 N          -4.7346    0.4926   -1.3407 N.ar    1  UNL1       -0.3520
     16 C          -3.9862    0.1508   -0.2863 C.ar    1  UNL1        0.0799
     17 C          -2.7381    0.4319    0.1005 C.ar    1  UNL1        0.0614
     18 S          -1.5286    1.3541   -0.5702 S.2     1  UNL1       -0.0841
     19 C           2.0280    0.8693    0.5176 C.ar    1  UNL1        0.0057
     20 C           3.1126    1.7696    0.8768 C.ar    1  UNL1       -0.0020
     21 C           4.4883    1.5304    0.6164 C.ar    1  UNL1       -0.0091
     22 C           5.5458    2.4152    0.9691 C.ar    1  UNL1       -0.0534
     23 C           6.8645    2.0979    0.6751 C.ar    1  UNL1       -0.0611
     24 C           7.1436    0.9054    0.0316 C.ar    1  UNL1       -0.0611
     25 C           6.1045    0.0304   -0.3180 C.ar    1  UNL1       -0.0534
     26 C           4.7334    0.2882   -0.0496 C.ar    1  UNL1       -0.0096
     27 C           3.6502   -0.6411   -0.4232 C.ar    1  UNL1       -0.0095
     28 C           3.9214   -1.8679   -1.0832 C.ar    1  UNL1       -0.0534
     29 C           2.9332   -2.7835   -1.4613 C.ar    1  UNL1       -0.0611
     30 C           1.6059   -2.5143   -1.1954 C.ar    1  UNL1       -0.0611
     31 C           1.2678   -1.3304   -0.5503 C.ar    1  UNL1       -0.0534
     32 C           2.2559   -0.3840   -0.1546 C.ar    1  UNL1       -0.0085
     33 H           3.2292    3.7456    1.8929 H       1  UNL1        0.0700
     34 H          -0.7389   -0.3019    2.6364 H       1  UNL1        0.0650
     35 H          -3.8164   -1.4363    2.4003 H       1  UNL1        0.1660
     36 H          -7.0549   -2.1819    1.4113 H       1  UNL1        0.0837
     37 H          -9.0993   -0.9484   -1.9613 H       1  UNL1        0.0830
     38 H          -7.1796    0.3989   -2.8394 H       1  UNL1        0.0653
     39 H          -4.4541    1.0881   -2.1093 H       1  UNL1        0.1660
     40 H           5.3494    3.3560    1.4738 H       1  UNL1        0.0624
     41 H           7.6672    2.7777    0.9466 H       1  UNL1        0.0618
     42 H           8.1718    0.6431   -0.2057 H       1  UNL1        0.0618
     43 H           6.4139   -0.8815   -0.8203 H       1  UNL1        0.0624
     44 H           4.9385   -2.1570   -1.3313 H       1  UNL1        0.0624
     45 H           3.2128   -3.7050   -1.9657 H       1  UNL1        0.0618
     46 H           0.8315   -3.2180   -1.4877 H       1  UNL1        0.0618
     47 H           0.2145   -1.1675   -0.3692 H       1  UNL1        0.0624
@<TRIPOS>BOND
     1     1     2   ar
     2     2     3   ar
     3     3     4    1
     4     4     5   ar
     5     5     6   ar
     6     6     7   ar
     7     7     8   ar
     8     8     9   ar
     9     9    10   ar
    10    10    11   ar
    11    11    12   ar
    12    12    13   ar
    13    13    14   ar
    14    14    15   ar
    15    15    16   ar
    16    16    17   ar
    17    17    18   ar
    18     3    19   ar
    19    19    20   ar
    20    20    21   ar
    21    21    22   ar
    22    22    23   ar
    23    23    24   ar
    24    24    25   ar
    25    25    26   ar
    26    26    27   ar
    27    27    28   ar
    28    28    29   ar
    29    29    30   ar
    30    30    31   ar
    31    31    32   ar
    32    20     1   ar
    33    26    21   ar
    34    32    27   ar
    35    18     4   ar
    36    32    19   ar
    37    17     6   ar
    38    16     8   ar
    39    14     9   ar
    40     1    33    1
    41     5    34    1
    42     7    35    1
    43    10    36    1
    44    12    37    1
    45    13    38    1
    46    15    39    1
    47    22    40    1
    48    23    41    1
    49    24    42    1
    50    25    43    1
    51    28    44    1
    52    29    45    1
    53    30    46    1
    54    31    47    1
