@<TRIPOS>MOLECULE
*****
 42 49 0 0 0
SMALL
GASTEIGER

@<TRIPOS>ATOM
      1 C           5.3319   -2.6322    0.3030 C.ar    1  UNL1        0.0038
      2 S           3.6240   -2.6804    0.2146 S.2     1  UNL1       -0.0909
      3 C           3.4744   -0.9536    0.1900 C.ar    1  UNL1        0.0629
      4 C           2.1741   -0.3285    0.1163 C.ar    1  UNL1        0.0563
      5 C           1.8292    1.0150    0.0866 C.ar    1  UNL1       -0.0275
      6 C           0.4367    1.0441    0.0129 C.ar    1  UNL1        0.0092
      7 C          -0.4616    2.1397   -0.0439 C.ar    1  UNL1       -0.0010
      8 C          -0.0697    3.4462   -0.0345 C.ar    1  UNL1       -0.0160
      9 S          -1.4670    4.4381   -0.1167 S.2     1  UNL1       -0.1038
     10 C          -2.5219    3.0691   -0.1607 C.ar    1  UNL1       -0.0159
     11 C          -1.8571    1.8578   -0.1152 C.ar    1  UNL1       -0.0004
     12 C          -2.4988    0.5680   -0.1380 C.ar    1  UNL1        0.0204
     13 C          -3.9199    0.3001   -0.2109 C.ar    1  UNL1        0.0815
     14 N          -4.8322    1.2961   -0.2677 N.ar    1  UNL1       -0.2543
     15 C          -6.1570    1.0187   -0.3354 C.ar    1  UNL1        0.0283
     16 C          -6.6780   -0.2555   -0.3520 C.ar    1  UNL1       -0.0429
     17 C          -5.7824   -1.3071   -0.2955 C.ar    1  UNL1       -0.0490
     18 C          -4.3992   -1.0371   -0.2247 C.ar    1  UNL1        0.0292
     19 C          -3.4476   -2.1049   -0.1652 C.ar    1  UNL1        0.1097
     20 N          -3.7263   -3.4225   -0.1686 N.ar    1  UNL1       -0.1901
     21 S          -2.2817   -4.2239   -0.0853 S.2     1  UNL1        0.1165
     22 N          -1.2316   -2.9445   -0.0408 N.ar    1  UNL1       -0.1901
     23 C          -1.9772   -1.8221   -0.0899 C.ar    1  UNL1        0.1103
     24 C          -1.4983   -0.4824   -0.0761 C.ar    1  UNL1        0.0368
     25 C          -0.1057   -0.2192   -0.0049 C.ar    1  UNL1        0.0576
     26 N           0.9943   -1.0517    0.0604 N.ar    1  UNL1       -0.3531
     27 C           4.7271   -0.3665    0.2494 C.ar    1  UNL1        0.1053
     28 N           4.9533    0.9827    0.2479 N.ar    1  UNL1       -0.2507
     29 C           6.2832    1.2608    0.3143 C.ar    1  UNL1        0.0464
     30 C           7.3052    0.3073    0.3767 C.ar    1  UNL1        0.0464
     31 N           7.1191   -1.0402    0.3803 N.ar    1  UNL1       -0.2514
     32 C           5.7926   -1.3429    0.3143 C.ar    1  UNL1        0.0968
     33 H           5.9134   -3.5417    0.3421 H       1  UNL1        0.0715
     34 H           2.5169    1.8494    0.1156 H       1  UNL1        0.0645
     35 H           0.9202    3.8774    0.0142 H       1  UNL1        0.0700
     36 H          -3.5808    3.2707   -0.2183 H       1  UNL1        0.0700
     37 H          -6.8062    1.8893   -0.3772 H       1  UNL1        0.0830
     38 H          -7.7470   -0.4242   -0.4071 H       1  UNL1        0.0633
     39 H          -6.1505   -2.3306   -0.3062 H       1  UNL1        0.0625
     40 H           0.9323   -2.0623    0.0657 H       1  UNL1        0.1659
     41 H           6.5267    2.3197    0.3165 H       1  UNL1        0.0845
     42 H           8.3432    0.6242    0.4275 H       1  UNL1        0.0845
@<TRIPOS>BOND
     1     1     2   ar
     2     2     3   ar
     3     3     4    1
     4     4     5   ar
     5     5     6   ar
     6     6     7   ar
     7     7     8   ar
     8     8     9   ar
     9     9    10   ar
    10    10    11   ar
    11    11    12   ar
    12    12    13   ar
    13    13    14   ar
    14    14    15   ar
    15    15    16   ar
    16    16    17   ar
    17    17    18   ar
    18    18    19   ar
    19    19    20   ar
    20    20    21   ar
    21    21    22   ar
    22    22    23   ar
    23    23    24   ar
    24    24    25   ar
    25    25    26   ar
    26     3    27   ar
    27    27    28   ar
    28    28    29   ar
    29    29    30   ar
    30    30    31   ar
    31    31    32   ar
    32    32     1   ar
    33    26     4   ar
    34    32    27   ar
    35    25     6   ar
    36    11     7   ar
    37    24    12   ar
    38    18    13   ar
    39    23    19   ar
    40     1    33    1
    41     5    34    1
    42     8    35    1
    43    10    36    1
    44    15    37    1
    45    16    38    1
    46    17    39    1
    47    26    40    1
    48    29    41    1
    49    30    42    1
