@<TRIPOS>MOLECULE
*****
 39 44 0 0 0
SMALL
GASTEIGER

@<TRIPOS>ATOM
      1 C           5.5398    2.3658   -1.7383 C.ar    1  UNL1        0.0038
      2 S           3.8521    2.6083   -1.6877 S.2     1  UNL1       -0.0908
      3 C           3.5353    1.0816   -0.9141 C.ar    1  UNL1        0.0650
      4 C           2.1460    0.6897   -0.5850 C.ar    1  UNL1        0.0802
      5 C           1.0257    1.4715   -0.8533 C.ar    1  UNL1       -0.0274
      6 C          -0.2576    1.0155   -0.5036 C.ar    1  UNL1       -0.0138
      7 C          -1.3782    1.8014   -0.7739 C.ar    1  UNL1       -0.0533
      8 C          -2.6552    1.3597   -0.4317 C.ar    1  UNL1       -0.0514
      9 C          -2.8734    0.1193    0.1930 C.ar    1  UNL1        0.0087
     10 C          -1.7438   -0.6968    0.4770 C.ar    1  UNL1       -0.0067
     11 C          -1.9864   -1.9364    1.1038 C.ar    1  UNL1       -0.0527
     12 C          -3.2747   -2.3507    1.4338 C.ar    1  UNL1       -0.0520
     13 C          -4.3711   -1.5366    1.1474 C.ar    1  UNL1        0.0010
     14 C          -5.6693   -1.9509    1.4782 C.ar    1  UNL1       -0.0511
     15 C          -6.7529   -1.1351    1.1898 C.ar    1  UNL1       -0.0430
     16 C          -6.4983    0.0723    0.5775 C.ar    1  UNL1        0.0283
     17 N          -5.2603    0.4996    0.2462 N.ar    1  UNL1       -0.2544
     18 C          -4.1887   -0.2860    0.5213 C.ar    1  UNL1        0.0787
     19 C          -0.4245   -0.2351    0.1210 C.ar    1  UNL1        0.0080
     20 C           0.7710   -0.9353    0.3421 C.ar    1  UNL1        0.0366
     21 N           2.0154   -0.5100    0.0113 N.ar    1  UNL1       -0.2537
     22 C           4.7369    0.4153   -0.7101 C.ar    1  UNL1        0.1054
     23 N           4.8600   -0.8140   -0.1249 N.ar    1  UNL1       -0.2507
     24 C           6.1546   -1.2164   -0.0585 C.ar    1  UNL1        0.0464
     25 C           7.2490   -0.4829   -0.5242 C.ar    1  UNL1        0.0464
     26 N           7.1758    0.7408   -1.1116 N.ar    1  UNL1       -0.2514
     27 C           5.8824    1.1622   -1.1875 C.ar    1  UNL1        0.0968
     28 H           6.1992    3.1077   -2.1646 H       1  UNL1        0.0715
     29 H           1.1237    2.4394   -1.3336 H       1  UNL1        0.0645
     30 H          -1.2772    2.7720   -1.2557 H       1  UNL1        0.0624
     31 H          -3.5023    2.0067   -0.6617 H       1  UNL1        0.0624
     32 H          -1.1723   -2.6127    1.3514 H       1  UNL1        0.0624
     33 H          -3.4101   -3.3162    1.9166 H       1  UNL1        0.0624
     34 H          -5.8411   -2.9095    1.9614 H       1  UNL1        0.0625
     35 H          -7.7651   -1.4337    1.4359 H       1  UNL1        0.0633
     36 H          -7.3045    0.7553    0.3259 H       1  UNL1        0.0830
     37 H           0.7821   -1.9121    0.8158 H       1  UNL1        0.0836
     38 H           6.3040   -2.1897    0.3997 H       1  UNL1        0.0845
     39 H           8.2538   -0.8845   -0.4292 H       1  UNL1        0.0845
@<TRIPOS>BOND
     1     1     2   ar
     2     2     3   ar
     3     3     4    1
     4     4     5   ar
     5     5     6   ar
     6     6     7   ar
     7     7     8   ar
     8     8     9   ar
     9     9    10   ar
    10    10    11   ar
    11    11    12   ar
    12    12    13   ar
    13    13    14   ar
    14    14    15   ar
    15    15    16   ar
    16    16    17   ar
    17    17    18   ar
    18    10    19   ar
    19    19    20   ar
    20    20    21   ar
    21     3    22   ar
    22    22    23   ar
    23    23    24   ar
    24    24    25   ar
    25    25    26   ar
    26    26    27   ar
    27    27     1   ar
    28    21     4   ar
    29    27    22   ar
    30    19     6   ar
    31    18     9   ar
    32    18    13   ar
    33     1    28    1
    34     5    29    1
    35     7    30    1
    36     8    31    1
    37    11    32    1
    38    12    33    1
    39    14    34    1
    40    15    35    1
    41    16    36    1
    42    20    37    1
    43    24    38    1
    44    25    39    1
