@<TRIPOS>MOLECULE
*****
 48 55 0 0 0
SMALL
GASTEIGER

@<TRIPOS>ATOM
      1 C          -3.3686   -2.6684    0.7760 C.ar    1  UNL1       -0.0153
      2 S          -1.8231   -3.3269    0.5070 S.2     1  UNL1       -0.0923
      3 C          -1.2002   -1.8293   -0.0776 C.ar    1  UNL1        0.0627
      4 C           0.2097   -1.7859   -0.3522 C.ar    1  UNL1        0.1435
      5 C           0.9481   -2.5599   -1.2423 C.ar    1  UNL1       -0.0060
      6 C           2.3039   -2.1595   -1.1319 C.ar    1  UNL1        0.0410
      7 C           3.5335   -2.4980   -1.7125 C.ar    1  UNL1        0.0392
      8 N           4.7193   -1.9074   -1.3878 N.ar    1  UNL1       -0.2520
      9 C           4.7471   -0.9315   -0.4453 C.ar    1  UNL1        0.1012
     10 C           5.8142   -0.1564    0.0831 C.ar    1  UNL1        0.0438
     11 C           7.1910   -0.1024   -0.1541 C.ar    1  UNL1        0.0388
     12 N           7.9744    0.7715    0.5286 N.ar    1  UNL1       -0.2625
     13 C           7.4021    1.5874    1.4419 C.ar    1  UNL1        0.0295
     14 C           6.0502    1.6146    1.7530 C.ar    1  UNL1       -0.0196
     15 C           5.2641    0.7112    1.0409 C.ar    1  UNL1        0.0520
     16 N           3.9057    0.4664    1.0892 N.ar    1  UNL1       -0.3499
     17 C           3.6126   -0.5121    0.1991 C.ar    1  UNL1        0.1095
     18 C           2.2993   -1.1742   -0.1719 C.ar    1  UNL1        0.1624
     19 O           1.0640   -0.9352    0.3107 O.2     1  UNL1       -0.4521
     20 C          -2.1887   -0.8537   -0.1473 C.ar    1  UNL1        0.0082
     21 C          -3.4416   -1.3464    0.4021 C.ar    1  UNL1       -0.0019
     22 C          -4.6276   -0.5769    0.5384 C.ar    1  UNL1       -0.0091
     23 C          -5.8486   -1.0601    1.0869 C.ar    1  UNL1       -0.0534
     24 C          -6.9563   -0.2305    1.1921 C.ar    1  UNL1       -0.0611
     25 C          -6.8616    1.0795    0.7567 C.ar    1  UNL1       -0.0611
     26 C          -5.6607    1.5595    0.2139 C.ar    1  UNL1       -0.0534
     27 C          -4.4888    0.7692    0.0731 C.ar    1  UNL1       -0.0096
     28 C          -3.2361    1.2829   -0.5127 C.ar    1  UNL1       -0.0095
     29 C          -3.1290    2.6167   -0.9854 C.ar    1  UNL1       -0.0534
     30 C          -1.9749    3.1418   -1.5780 C.ar    1  UNL1       -0.0611
     31 C          -0.8584    2.3458   -1.7384 C.ar    1  UNL1       -0.0611
     32 C          -0.8911    1.0304   -1.2908 C.ar    1  UNL1       -0.0534
     33 C          -2.0446    0.4835   -0.6601 C.ar    1  UNL1       -0.0084
     34 H          -4.1317   -3.3067    1.1963 H       1  UNL1        0.0700
     35 H           0.5437   -3.3221   -1.8942 H       1  UNL1        0.0662
     36 H           3.6039   -3.2695   -2.4743 H       1  UNL1        0.0837
     37 H           7.6861   -0.7405   -0.8774 H       1  UNL1        0.0837
     38 H           8.0945    2.2568    1.9467 H       1  UNL1        0.0830
     39 H           5.6464    2.2907    2.4952 H       1  UNL1        0.0653
     40 H           3.2400    0.9369    1.6878 H       1  UNL1        0.1661
     41 H          -5.9436   -2.0827    1.4386 H       1  UNL1        0.0624
     42 H          -7.8854   -0.6046    1.6127 H       1  UNL1        0.0618
     43 H          -7.7209    1.7415    0.8338 H       1  UNL1        0.0618
     44 H          -5.6758    2.5982   -0.1036 H       1  UNL1        0.0624
     45 H          -3.9656    3.3054   -0.9113 H       1  UNL1        0.0624
     46 H          -1.9641    4.1728   -1.9225 H       1  UNL1        0.0618
     47 H           0.0356    2.7398   -2.2140 H       1  UNL1        0.0618
     48 H          -0.0025    0.4386   -1.4657 H       1  UNL1        0.0624
@<TRIPOS>BOND
     1     1     2   ar
     2     2     3   ar
     3     3     4    1
     4     4     5   ar
     5     5     6   ar
     6     6     7   ar
     7     7     8   ar
     8     8     9   ar
     9     9    10   ar
    10    10    11   ar
    11    11    12   ar
    12    12    13   ar
    13    13    14   ar
    14    14    15   ar
    15    15    16   ar
    16    16    17   ar
    17    17    18   ar
    18    18    19   ar
    19     3    20   ar
    20    20    21   ar
    21    21    22   ar
    22    22    23   ar
    23    23    24   ar
    24    24    25   ar
    25    25    26   ar
    26    26    27   ar
    27    27    28   ar
    28    28    29   ar
    29    29    30   ar
    30    30    31   ar
    31    31    32   ar
    32    32    33   ar
    33    21     1   ar
    34    27    22   ar
    35    33    28   ar
    36    19     4   ar
    37    33    20   ar
    38    18     6   ar
    39    17     9   ar
    40    15    10   ar
    41     1    34    1
    42     5    35    1
    43     7    36    1
    44    11    37    1
    45    13    38    1
    46    14    39    1
    47    16    40    1
    48    23    41    1
    49    24    42    1
    50    25    43    1
    51    26    44    1
    52    29    45    1
    53    30    46    1
    54    31    47    1
    55    32    48    1
