@<TRIPOS>MOLECULE
*****
 34 38 0 0 0
SMALL
GASTEIGER

@<TRIPOS>ATOM
      1 C           4.7641    2.2895   -1.0109 C.ar    1  UNL1        0.0038
      2 S           3.1628    2.4842   -1.5602 S.2     1  UNL1       -0.0923
      3 C           2.5141    1.2606   -0.4988 C.ar    1  UNL1        0.0468
      4 C           1.0521    0.9562   -0.5250 C.ar    1  UNL1       -0.0086
      5 C           0.1602    1.6217   -1.3803 C.ar    1  UNL1       -0.0528
      6 C          -1.2106    1.3250   -1.3938 C.ar    1  UNL1       -0.0514
      7 C          -1.7653    0.3462   -0.5525 C.ar    1  UNL1        0.0081
      8 C          -0.8837   -0.3348    0.3157 C.ar    1  UNL1       -0.0152
      9 C          -1.3890   -1.3177    1.1720 C.ar    1  UNL1       -0.0533
     10 C          -2.7461   -1.6246    1.1717 C.ar    1  UNL1       -0.0520
     11 C          -3.6230   -0.9515    0.3123 C.ar    1  UNL1        0.0010
     12 C          -4.9910   -1.2578    0.3090 C.ar    1  UNL1       -0.0511
     13 C          -5.8516   -0.5852   -0.5463 C.ar    1  UNL1       -0.0430
     14 C          -5.3116    0.3760   -1.3735 C.ar    1  UNL1        0.0283
     15 N          -3.9999    0.6966   -1.3968 N.ar    1  UNL1       -0.2544
     16 C          -3.1463    0.0477   -0.5664 C.ar    1  UNL1        0.0786
     17 C           0.4931   -0.0223    0.3149 C.ar    1  UNL1       -0.0457
     18 C           3.5551    0.7298    0.2568 C.ar    1  UNL1        0.1039
     19 N           3.4099   -0.2551    1.1953 N.ar    1  UNL1       -0.2508
     20 C           4.5961   -0.5766    1.7769 C.ar    1  UNL1        0.0464
     21 C           5.8277    0.0096    1.4739 C.ar    1  UNL1        0.0464
     22 N           6.0174    0.9882    0.5516 N.ar    1  UNL1       -0.2514
     23 C           4.8404    1.3266   -0.0447 C.ar    1  UNL1        0.0968
     24 H           5.5701    2.8834   -1.4165 H       1  UNL1        0.0715
     25 H           0.4953    2.3944   -2.0673 H       1  UNL1        0.0624
     26 H          -1.8549    1.8748   -2.0796 H       1  UNL1        0.0624
     27 H          -0.7271   -1.8544    1.8489 H       1  UNL1        0.0624
     28 H          -3.1125   -2.3936    1.8481 H       1  UNL1        0.0624
     29 H          -5.3911   -2.0208    0.9720 H       1  UNL1        0.0625
     30 H          -6.9124   -0.8054   -0.5660 H       1  UNL1        0.0633
     31 H          -5.9351    0.9359   -2.0646 H       1  UNL1        0.0830
     32 H           1.1292   -0.5743    1.0012 H       1  UNL1        0.0630
     33 H           4.5365   -1.3558    2.5317 H       1  UNL1        0.0845
     34 H           6.7273   -0.3114    1.9912 H       1  UNL1        0.0845
@<TRIPOS>BOND
     1     1     2   ar
     2     2     3   ar
     3     3     4    1
     4     4     5   ar
     5     5     6   ar
     6     6     7   ar
     7     7     8   ar
     8     8     9   ar
     9     9    10   ar
    10    10    11   ar
    11    11    12   ar
    12    12    13   ar
    13    13    14   ar
    14    14    15   ar
    15    15    16   ar
    16     8    17   ar
    17     3    18   ar
    18    18    19   ar
    19    19    20   ar
    20    20    21   ar
    21    21    22   ar
    22    22    23   ar
    23    23     1   ar
    24    17     4   ar
    25    23    18   ar
    26    16     7   ar
    27    16    11   ar
    28     1    24    1
    29     5    25    1
    30     6    26    1
    31     9    27    1
    32    10    28    1
    33    12    29    1
    34    13    30    1
    35    14    31    1
    36    17    32    1
    37    20    33    1
    38    21    34    1
