@<TRIPOS>MOLECULE
*****
 36 41 0 0 0
SMALL
GASTEIGER

@<TRIPOS>ATOM
      1 C           5.3591   -1.9894    1.9859 C.ar    1  UNL1        0.0038
      2 S           3.6582   -2.1025    2.0486 S.2     1  UNL1       -0.0923
      3 C           3.4058   -0.8301    0.8848 C.ar    1  UNL1        0.0483
      4 C           2.0226   -0.4389    0.4960 C.ar    1  UNL1        0.0100
      5 C           1.7753    0.5731   -0.4307 C.ar    1  UNL1        0.0367
      6 N           0.5666    1.0112   -0.8580 N.ar    1  UNL1       -0.2517
      7 C          -0.5220    0.3916   -0.3200 C.ar    1  UNL1        0.1039
      8 C          -0.3927   -0.6298    0.6125 C.ar    1  UNL1        0.0409
      9 C           0.8826   -1.0567    1.0312 C.ar    1  UNL1       -0.0361
     10 S          -1.9186   -1.2196    1.1130 S.2     1  UNL1       -0.0844
     11 C          -2.7853   -0.1282    0.0993 C.ar    1  UNL1        0.0480
     12 C          -1.9023    0.6840   -0.6187 C.ar    1  UNL1        0.1045
     13 N          -2.3330    1.6377   -1.4968 N.ar    1  UNL1       -0.2517
     14 C          -3.6651    1.7604   -1.6400 C.ar    1  UNL1        0.0361
     15 C          -4.6303    1.0089   -0.9791 C.ar    1  UNL1        0.0013
     16 C          -6.0090    1.1963   -1.1824 C.ar    1  UNL1       -0.0525
     17 C          -6.9399    0.4158   -0.4942 C.ar    1  UNL1       -0.0611
     18 C          -6.5080   -0.5589    0.4029 C.ar    1  UNL1       -0.0611
     19 C          -5.1432   -0.7585    0.6169 C.ar    1  UNL1       -0.0529
     20 C          -4.1922    0.0253   -0.0738 C.ar    1  UNL1       -0.0006
     21 C           4.6430   -0.3478    0.4752 C.ar    1  UNL1        0.1039
     22 N           4.8129    0.6569   -0.4349 N.ar    1  UNL1       -0.2508
     23 C           6.1296    0.9249   -0.6475 C.ar    1  UNL1        0.0464
     24 C           7.1956    0.2689   -0.0253 C.ar    1  UNL1        0.0464
     25 N           7.0692   -0.7334    0.8837 N.ar    1  UNL1       -0.2514
     26 C           5.7571   -1.0177    1.1112 C.ar    1  UNL1        0.0968
     27 H           5.9846   -2.6335    2.5869 H       1  UNL1        0.0715
     28 H           2.5870    1.1167   -0.9060 H       1  UNL1        0.0836
     29 H           0.9464   -1.8570    1.7609 H       1  UNL1        0.0636
     30 H          -3.9571    2.5324   -2.3494 H       1  UNL1        0.0836
     31 H          -6.3665    1.9522   -1.8786 H       1  UNL1        0.0624
     32 H          -8.0038    0.5687   -0.6586 H       1  UNL1        0.0618
     33 H          -7.2350   -1.1654    0.9376 H       1  UNL1        0.0618
     34 H          -4.8335   -1.5255    1.3222 H       1  UNL1        0.0624
     35 H           6.3229    1.7182   -1.3647 H       1  UNL1        0.0845
     36 H           8.2192    0.5498   -0.2567 H       1  UNL1        0.0845
@<TRIPOS>BOND
     1     1     2   ar
     2     2     3   ar
     3     3     4    1
     4     4     5   ar
     5     5     6   ar
     6     6     7   ar
     7     7     8   ar
     8     8     9   ar
     9     8    10   ar
    10    10    11   ar
    11    11    12   ar
    12    12    13   ar
    13    13    14   ar
    14    14    15   ar
    15    15    16   ar
    16    16    17   ar
    17    17    18   ar
    18    18    19   ar
    19    19    20   ar
    20     3    21   ar
    21    21    22   ar
    22    22    23   ar
    23    23    24   ar
    24    24    25   ar
    25    25    26   ar
    26    26     1   ar
    27     9     4   ar
    28    20    11   ar
    29    26    21   ar
    30    12     7   ar
    31    20    15   ar
    32     1    27    1
    33     5    28    1
    34     9    29    1
    35    14    30    1
    36    16    31    1
    37    17    32    1
    38    18    33    1
    39    19    34    1
    40    23    35    1
    41    24    36    1
