@<TRIPOS>MOLECULE
*****
 48 55 0 0 0
SMALL
GASTEIGER

@<TRIPOS>ATOM
      1 C          -6.1139   -1.3264    1.8344 C.ar    1  UNL1       -0.0166
      2 S          -5.0641   -0.8374    3.1050 S.2     1  UNL1       -0.1039
      3 C          -3.7885   -0.4681    2.0119 C.ar    1  UNL1       -0.0160
      4 C          -4.1511   -0.7111    0.7069 C.ar    1  UNL1       -0.0032
      5 C          -3.3163   -0.5008   -0.4058 C.ar    1  UNL1       -0.0090
      6 C          -3.9675   -0.8429   -1.6197 C.ar    1  UNL1       -0.0534
      7 C          -5.3103   -1.3357   -1.7019 C.ar    1  UNL1       -0.0606
      8 C          -6.1438   -1.5419   -0.5819 C.ar    1  UNL1       -0.0535
      9 C          -5.5022   -1.2086    0.6109 C.ar    1  UNL1       -0.0103
     10 C          -1.9419   -0.0049   -0.3323 C.ar    1  UNL1       -0.0076
     11 C          -0.9147   -0.9595   -0.2652 C.ar    1  UNL1       -0.0294
     12 C           0.4103   -0.5272   -0.1913 C.ar    1  UNL1        0.0487
     13 N           1.5508   -1.2833   -0.1152 N.ar    1  UNL1       -0.3536
     14 C           2.6691   -0.4922   -0.0580 C.ar    1  UNL1        0.0574
     15 C           2.2340    0.8334   -0.0978 C.ar    1  UNL1        0.0087
     16 C           3.2328    1.8341   -0.0497 C.ar    1  UNL1       -0.0514
     17 C           4.5955    1.4944    0.0341 C.ar    1  UNL1       -0.0533
     18 C           5.0184    0.1651    0.0732 C.ar    1  UNL1       -0.0137
     19 C           6.4010   -0.1549    0.1580 C.ar    1  UNL1       -0.0518
     20 C           6.9038   -1.4706    0.2017 C.ar    1  UNL1       -0.0329
     21 C           5.9463   -2.5100    0.1566 C.ar    1  UNL1        0.1006
     22 N           6.2171   -3.8236    0.1867 N.ar    1  UNL1       -0.1908
     23 S           4.7566   -4.6068    0.1098 S.2     1  UNL1        0.1165
     24 N           3.7118   -3.3177    0.0336 N.ar    1  UNL1       -0.1901
     25 C           4.4720   -2.2049    0.0665 C.ar    1  UNL1        0.1095
     26 C           4.0253   -0.8525    0.0257 C.ar    1  UNL1        0.0342
     27 C           0.7841    0.8176   -0.1830 C.ar    1  UNL1        0.0151
     28 C          -0.2658    1.7987   -0.2551 C.ar    1  UNL1       -0.0076
     29 C           0.0214    3.1833   -0.2525 C.ar    1  UNL1       -0.0534
     30 C          -0.9913    4.1403   -0.3221 C.ar    1  UNL1       -0.0611
     31 C          -2.3150    3.7387   -0.3963 C.ar    1  UNL1       -0.0611
     32 C          -2.6264    2.3789   -0.4010 C.ar    1  UNL1       -0.0534
     33 C          -1.6278    1.3777   -0.3307 C.ar    1  UNL1       -0.0094
     34 H          -7.1133   -1.6690    2.0641 H       1  UNL1        0.0699
     35 H          -2.8500   -0.0920    2.3967 H       1  UNL1        0.0700
     36 H          -3.4156   -0.7217   -2.5536 H       1  UNL1        0.0624
     37 H          -5.7087   -1.5641   -2.6912 H       1  UNL1        0.0618
     38 H          -7.1557   -1.9152   -0.6653 H       1  UNL1        0.0624
     39 H          -1.1498   -2.0215   -0.2658 H       1  UNL1        0.0644
     40 H           1.5826   -2.2949   -0.1016 H       1  UNL1        0.1659
     41 H           2.9760    2.8867   -0.0761 H       1  UNL1        0.0624
     42 H           5.3228    2.3042    0.0683 H       1  UNL1        0.0624
     43 H           7.1291    0.6578    0.1922 H       1  UNL1        0.0624
     44 H           7.9648   -1.6801    0.2665 H       1  UNL1        0.0640
     45 H           1.0384    3.5460   -0.1960 H       1  UNL1        0.0624
     46 H          -0.7415    5.1979   -0.3176 H       1  UNL1        0.0618
     47 H          -3.1098    4.4777   -0.4501 H       1  UNL1        0.0618
     48 H          -3.6790    2.1070   -0.4598 H       1  UNL1        0.0624
@<TRIPOS>BOND
     1     1     2   ar
     2     2     3   ar
     3     3     4   ar
     4     4     5   ar
     5     5     6   ar
     6     6     7   ar
     7     7     8   ar
     8     8     9   ar
     9     5    10    1
    10    10    11   ar
    11    11    12   ar
    12    12    13   ar
    13    13    14   ar
    14    14    15   ar
    15    15    16   ar
    16    16    17   ar
    17    17    18   ar
    18    18    19   ar
    19    19    20   ar
    20    20    21   ar
    21    21    22   ar
    22    22    23   ar
    23    23    24   ar
    24    24    25   ar
    25    25    26   ar
    26    15    27   ar
    27    27    28   ar
    28    28    29   ar
    29    29    30   ar
    30    30    31   ar
    31    31    32   ar
    32    32    33   ar
    33     9     1   ar
    34    33    10   ar
    35     9     4   ar
    36    27    12   ar
    37    33    28   ar
    38    26    14   ar
    39    26    18   ar
    40    25    21   ar
    41     1    34    1
    42     3    35    1
    43     6    36    1
    44     7    37    1
    45     8    38    1
    46    11    39    1
    47    13    40    1
    48    16    41    1
    49    17    42    1
    50    19    43    1
    51    20    44    1
    52    29    45    1
    53    30    46    1
    54    31    47    1
    55    32    48    1
