@<TRIPOS>MOLECULE
*****
 33 37 0 0 0
SMALL
GASTEIGER

@<TRIPOS>ATOM
      1 SI         -5.4162   -0.6464    1.8191 Si      1  UNL1        0.0000
      2 C          -5.4797    0.0292    0.0710 C.2     1  UNL1        0.0000
      3 C          -4.2378    0.2057   -0.4192 C.ar    1  UNL1        0.0000
      4 C          -3.9385    0.7183   -1.7549 C.ar    1  UNL1        0.0000
      5 C          -2.6588    0.8613   -2.1590 C.ar    1  UNL1        0.0000
      6 C          -1.6231    0.4978   -1.2452 C.ar    1  UNL1        0.0000
      7 O          -0.2775    0.5728   -1.4751 O.2     1  UNL1        0.0000
      8 C           0.3858    0.1331   -0.3542 C.ar    1  UNL1        0.0000
      9 C          -0.5461   -0.2286    0.6075 C.ar    1  UNL1        0.0000
     10 C          -1.8124    0.0035    0.0400 C.ar    1  UNL1        0.0000
     11 C          -3.1433   -0.1684    0.5209 C.ar    1  UNL1        0.0000
     12 C          -3.5468   -0.6271    1.7196 C.2     1  UNL1        0.0000
     13 C           1.8170    0.0944   -0.2924 C.ar    1  UNL1        0.0000
     14 C           2.7352    0.4648   -1.2738 C.ar    1  UNL1        0.0000
     15 C           3.9894    0.2392   -0.7247 C.ar    1  UNL1        0.0000
     16 SI          5.8133    0.3574   -1.0791 Si      1  UNL1        0.0000
     17 C           6.1066   -0.3453    0.7279 C.2     1  UNL1        0.0000
     18 C           4.9436   -0.5841    1.3759 C.2     1  UNL1        0.0000
     19 C           3.8505   -0.2522    0.5482 C.ar    1  UNL1        0.0000
     20 N           2.5217   -0.3439    0.8208 N.ar    1  UNL1        0.0000
     21 H          -5.9372    0.3191    2.8162 H       1  UNL1        0.0000
     22 H          -5.9612   -2.0219    1.9124 H       1  UNL1        0.0000
     23 H          -6.4170    0.2294   -0.4227 H       1  UNL1        0.0000
     24 H          -4.7603    0.9805   -2.4122 H       1  UNL1        0.0000
     25 H          -2.3978    1.2375   -3.1403 H       1  UNL1        0.0000
     26 H          -0.3343   -0.6117    1.5939 H       1  UNL1        0.0000
     27 H          -2.9303   -0.9509    2.5419 H       1  UNL1        0.0000
     28 H           2.4827    0.8471   -2.2547 H       1  UNL1        0.0000
     29 H           6.3304   -0.6092   -2.0808 H       1  UNL1        0.0000
     30 H           6.3549    1.7370   -1.1724 H       1  UNL1        0.0000
     31 H           7.1141   -0.4925    1.0807 H       1  UNL1        0.0000
     32 H           4.8618   -0.9728    2.3822 H       1  UNL1        0.0000
     33 H           2.1112   -0.6733    1.6825 H       1  UNL1        0.0000
@<TRIPOS>BOND
     1     1     2    1
     2     2     3    2
     3     3     4   ar
     4     4     5   ar
     5     5     6   ar
     6     6     7   ar
     7     7     8   ar
     8     8     9   ar
     9     9    10   ar
    10    10    11   ar
    11    11    12    2
    12     8    13    1
    13    13    14   ar
    14    14    15   ar
    15    15    16    1
    16    16    17    1
    17    17    18    2
    18    18    19    1
    19    19    20   ar
    20    12     1    1
    21    20    13   ar
    22    11     3   ar
    23    19    15   ar
    24    10     6   ar
    25     1    21    1
    26     1    22    1
    27     2    23    1
    28     4    24    1
    29     5    25    1
    30     9    26    1
    31    12    27    1
    32    14    28    1
    33    16    29    1
    34    16    30    1
    35    17    31    1
    36    18    32    1
    37    20    33    1
