@<TRIPOS>MOLECULE
*****
 35 40 0 0 0
SMALL
GASTEIGER

@<TRIPOS>ATOM
      1 C          -5.0268    0.9672   -2.5112 C.ar    1  UNL1       -0.0166
      2 S          -3.7343    0.5613   -3.5681 S.2     1  UNL1       -0.1039
      3 C          -2.6849    0.1777   -2.2599 C.ar    1  UNL1       -0.0160
      4 C          -3.2915    0.3781   -1.0408 C.ar    1  UNL1       -0.0018
      5 C          -2.6950    0.1527    0.2124 C.ar    1  UNL1        0.0066
      6 C          -3.5895    0.3851    1.2836 C.ar    1  UNL1       -0.0520
      7 C          -4.9433    0.8205    1.1124 C.ar    1  UNL1       -0.0605
      8 C          -5.5414    1.0616   -0.1433 C.ar    1  UNL1       -0.0535
      9 C          -4.6601    0.8161   -1.1969 C.ar    1  UNL1       -0.0102
     10 C          -1.3174   -0.2667    0.4058 C.ar    1  UNL1        0.0496
     11 C          -0.8277   -1.3646    1.1381 C.ar    1  UNL1       -0.0123
     12 C           0.5815   -1.2958    1.0277 C.ar    1  UNL1        0.0690
     13 N           1.8139   -1.8264    1.3296 N.ar    1  UNL1       -0.3498
     14 C           2.8007   -1.0513    0.7709 C.ar    1  UNL1        0.0969
     15 C           4.1684   -0.7924    0.5406 C.ar    1  UNL1        0.0623
     16 C           5.3966   -1.3580    0.8656 C.ar    1  UNL1        0.0403
     17 N           6.5435   -0.7765    0.4297 N.ar    1  UNL1       -0.2624
     18 C           6.4739    0.3516   -0.3194 C.ar    1  UNL1        0.0311
     19 C           5.3050    0.9924   -0.6972 C.ar    1  UNL1       -0.0005
     20 C           4.1470    0.3798   -0.2398 C.ar    1  UNL1        0.1407
     21 O           2.8702    0.8417   -0.4938 O.2     1  UNL1       -0.4510
     22 C           2.1375   -0.0698    0.1453 C.ar    1  UNL1        0.1776
     23 C           0.8289   -0.2029    0.2862 C.ar    1  UNL1        0.1082
     24 N          -0.2523    0.4674   -0.1092 N.ar    1  UNL1       -0.3500
     25 H          -5.9769    1.2836   -2.9191 H       1  UNL1        0.0699
     26 H          -1.6876   -0.1799   -2.4743 H       1  UNL1        0.0700
     27 H          -3.2309    0.2387    2.3031 H       1  UNL1        0.0624
     28 H          -5.5448    0.9758    2.0088 H       1  UNL1        0.0618
     29 H          -6.5672    1.3890   -0.2495 H       1  UNL1        0.0624
     30 H          -1.4245   -2.0996    1.6610 H       1  UNL1        0.0659
     31 H           1.9644   -2.6610    1.8802 H       1  UNL1        0.1661
     32 H           5.5050   -2.2572    1.4603 H       1  UNL1        0.0837
     33 H           7.4388    0.7497   -0.6256 H       1  UNL1        0.0831
     34 H           5.2898    1.8913   -1.2957 H       1  UNL1        0.0670
     35 H          -0.2692    1.3207   -0.6541 H       1  UNL1        0.1661
@<TRIPOS>BOND
     1     1     2   ar
     2     2     3   ar
     3     3     4   ar
     4     4     5   ar
     5     5     6   ar
     6     6     7   ar
     7     7     8   ar
     8     8     9   ar
     9     5    10    1
    10    10    11   ar
    11    11    12   ar
    12    12    13   ar
    13    13    14   ar
    14    14    15   ar
    15    15    16   ar
    16    16    17   ar
    17    17    18   ar
    18    18    19   ar
    19    19    20   ar
    20    20    21   ar
    21    21    22   ar
    22    22    23   ar
    23    23    24   ar
    24     9     1   ar
    25    24    10   ar
    26     9     4   ar
    27    23    12   ar
    28    22    14   ar
    29    20    15   ar
    30     1    25    1
    31     3    26    1
    32     6    27    1
    33     7    28    1
    34     8    29    1
    35    11    30    1
    36    13    31    1
    37    16    32    1
    38    18    33    1
    39    19    34    1
    40    24    35    1
