@<TRIPOS>MOLECULE
*****
 46 53 0 0 0
SMALL
GASTEIGER

@<TRIPOS>ATOM
      1 C           6.8227   -0.1275    2.0951 C.ar    1  UNL1       -0.0166
      2 S           5.6089    0.3489    3.2132 S.2     1  UNL1       -0.1039
      3 C           4.3933    0.3760    1.9963 C.ar    1  UNL1       -0.0160
      4 C           4.8903    0.0109    0.7653 C.ar    1  UNL1       -0.0031
      5 C           4.1328   -0.0587   -0.4206 C.ar    1  UNL1       -0.0075
      6 C           4.9456   -0.4220   -1.5283 C.ar    1  UNL1       -0.0533
      7 C           6.3506   -0.6930   -1.4509 C.ar    1  UNL1       -0.0606
      8 C           7.0987   -0.6302   -0.2580 C.ar    1  UNL1       -0.0535
      9 C           6.3073   -0.2651    0.8300 C.ar    1  UNL1       -0.0103
     10 C           2.7033    0.1846   -0.5119 C.ar    1  UNL1        0.0115
     11 C           1.7430   -0.6157    0.1372 C.ar    1  UNL1       -0.0441
     12 C           0.3388   -0.4144    0.0697 C.ar    1  UNL1       -0.0145
     13 C          -0.4758   -1.2820    0.7842 C.ar    1  UNL1       -0.0533
     14 C          -1.8688   -1.1620    0.7602 C.ar    1  UNL1       -0.0527
     15 C          -2.5496   -0.1803    0.0118 C.ar    1  UNL1       -0.0060
     16 C          -1.7373    0.7562   -0.6720 C.ar    1  UNL1        0.0107
     17 C          -2.4340    1.7904   -1.3074 C.ar    1  UNL1        0.0366
     18 N          -3.7753    1.9778   -1.3159 N.ar    1  UNL1       -0.2543
     19 C          -4.5538    1.0885   -0.7137 C.ar    1  UNL1        0.0722
     20 C          -5.9369    1.3840   -0.7865 C.ar    1  UNL1       -0.0351
     21 C          -6.9820    0.6024   -0.2639 C.ar    1  UNL1       -0.0515
     22 C          -6.4872   -0.5547    0.3121 C.ar    1  UNL1       -0.0102
     23 C          -7.3377   -1.4977    0.8346 C.ar    1  UNL1       -0.0166
     24 S          -6.4722   -2.8587    1.4024 S.2     1  UNL1       -0.1039
     25 C          -4.9636   -2.1739    0.9339 C.ar    1  UNL1       -0.0160
     26 C          -5.0846   -0.9038    0.4152 C.ar    1  UNL1       -0.0011
     27 C          -4.0040   -0.0615   -0.0580 C.ar    1  UNL1        0.0163
     28 C          -0.2859    0.6302   -0.6724 C.ar    1  UNL1        0.0195
     29 C           0.6684    1.4787   -1.3704 C.ar    1  UNL1        0.1088
     30 N           0.3778    2.5322   -2.1554 N.ar    1  UNL1       -0.1901
     31 S           1.7987    3.1626   -2.7107 S.2     1  UNL1        0.1165
     32 N           2.8773    2.1348   -2.0023 N.ar    1  UNL1       -0.1901
     33 C           2.1674    1.2450   -1.2856 C.ar    1  UNL1        0.1082
     34 H           7.8397   -0.2716    2.4331 H       1  UNL1        0.0699
     35 H           3.3882    0.6649    2.2692 H       1  UNL1        0.0700
     36 H           4.4775   -0.5016   -2.5115 H       1  UNL1        0.0624
     37 H           6.8687   -0.9606   -2.3726 H       1  UNL1        0.0618
     38 H           8.1602   -0.8356   -0.2205 H       1  UNL1        0.0624
     39 H           2.1195   -1.4542    0.7303 H       1  UNL1        0.0630
     40 H          -0.0450   -2.0776    1.3921 H       1  UNL1        0.0624
     41 H          -2.4057   -1.8505    1.3998 H       1  UNL1        0.0624
     42 H          -1.9225    2.5775   -1.8517 H       1  UNL1        0.0836
     43 H          -6.2162    2.3065   -1.3012 H       1  UNL1        0.0639
     44 H          -8.0238    0.8789   -0.3532 H       1  UNL1        0.0624
     45 H          -8.4174   -1.4779    0.8974 H       1  UNL1        0.0699
     46 H          -4.0993   -2.8004    1.0667 H       1  UNL1        0.0700
@<TRIPOS>BOND
     1     1     2   ar
     2     2     3   ar
     3     3     4   ar
     4     4     5   ar
     5     5     6   ar
     6     6     7   ar
     7     7     8   ar
     8     8     9   ar
     9     5    10    1
    10    10    11   ar
    11    11    12   ar
    12    12    13   ar
    13    13    14   ar
    14    14    15   ar
    15    15    16   ar
    16    16    17   ar
    17    17    18   ar
    18    18    19   ar
    19    19    20   ar
    20    20    21   ar
    21    21    22   ar
    22    22    23   ar
    23    23    24   ar
    24    24    25   ar
    25    25    26   ar
    26    26    27   ar
    27    16    28   ar
    28    28    29   ar
    29    29    30   ar
    30    30    31   ar
    31    31    32   ar
    32    32    33   ar
    33     9     1   ar
    34    33    10   ar
    35     9     4   ar
    36    28    12   ar
    37    33    29   ar
    38    27    15   ar
    39    27    19   ar
    40    26    22   ar
    41     1    34    1
    42     3    35    1
    43     6    36    1
    44     7    37    1
    45     8    38    1
    46    11    39    1
    47    13    40    1
    48    14    41    1
    49    17    42    1
    50    20    43    1
    51    21    44    1
    52    23    45    1
    53    25    46    1
