@<TRIPOS>MOLECULE
*****
 37 42 0 0 0
SMALL
GASTEIGER

@<TRIPOS>ATOM
      1 C          -6.2497    1.6555    0.1601 C.ar    1  UNL1       -0.0166
      2 S          -5.1864    2.9319    0.5981 S.2     1  UNL1       -0.1039
      3 C          -3.7981    1.9253    0.4579 C.ar    1  UNL1       -0.0160
      4 C          -4.1327    0.6388    0.1012 C.ar    1  UNL1       -0.0027
      5 C          -3.2208   -0.4141   -0.0945 C.ar    1  UNL1       -0.0031
      6 C          -3.8630   -1.6137   -0.4893 C.ar    1  UNL1       -0.0529
      7 C          -5.2787   -1.7403   -0.6665 C.ar    1  UNL1       -0.0606
      8 C          -6.1956   -0.6859   -0.4678 C.ar    1  UNL1       -0.0535
      9 C          -5.5588    0.4942   -0.0824 C.ar    1  UNL1       -0.0103
     10 C          -1.7883   -0.2918    0.1102 C.ar    1  UNL1        0.0211
     11 C          -1.1005   -0.0067    1.2687 C.ar    1  UNL1       -0.0377
     12 C           0.3226    0.0372    1.0871 C.ar    1  UNL1        0.0085
     13 C           1.3455    0.2926    2.0043 C.ar    1  UNL1        0.0366
     14 N           2.6440    0.2889    1.6285 N.ar    1  UNL1       -0.2521
     15 C           3.0223    0.0393    0.3541 C.ar    1  UNL1        0.1008
     16 C           2.0534   -0.2273   -0.6246 C.ar    1  UNL1        0.0349
     17 C           2.4647   -0.4821   -1.9312 C.ar    1  UNL1        0.0386
     18 N           3.7534   -0.4878   -2.3123 N.ar    1  UNL1       -0.2527
     19 C           4.6736   -0.2315   -1.3689 C.ar    1  UNL1        0.0913
     20 C           6.0078   -0.2328   -1.7449 C.ar    1  UNL1       -0.0327
     21 C           7.0180    0.0239   -0.8243 C.ar    1  UNL1       -0.0415
     22 C           6.6479    0.2801    0.4763 C.ar    1  UNL1        0.0285
     23 N           5.3655    0.2923    0.8895 N.ar    1  UNL1       -0.2513
     24 C           4.3761    0.0405   -0.0147 C.ar    1  UNL1        0.1150
     25 C           0.6837   -0.2252   -0.2355 C.ar    1  UNL1        0.0320
     26 S          -0.7228   -0.5183   -1.1999 S.2     1  UNL1       -0.0875
     27 H          -7.3142    1.8370    0.1034 H       1  UNL1        0.0699
     28 H          -2.8221    2.3510    0.6444 H       1  UNL1        0.0700
     29 H          -3.2538   -2.5018   -0.6638 H       1  UNL1        0.0624
     30 H          -5.6689   -2.7122   -0.9719 H       1  UNL1        0.0618
     31 H          -7.2620   -0.8038   -0.6084 H       1  UNL1        0.0624
     32 H          -1.5929    0.1637    2.2196 H       1  UNL1        0.0635
     33 H           1.1577    0.5050    3.0519 H       1  UNL1        0.0836
     34 H           1.7612   -0.6940   -2.7315 H       1  UNL1        0.0837
     35 H           6.2651   -0.4390   -2.7810 H       1  UNL1        0.0640
     36 H           8.0607    0.0226   -1.1198 H       1  UNL1        0.0633
     37 H           7.3860    0.4883    1.2454 H       1  UNL1        0.0830
@<TRIPOS>BOND
     1     1     2   ar
     2     2     3   ar
     3     3     4   ar
     4     4     5   ar
     5     5     6   ar
     6     6     7   ar
     7     7     8   ar
     8     8     9   ar
     9     5    10    1
    10    10    11   ar
    11    11    12   ar
    12    12    13   ar
    13    13    14   ar
    14    14    15   ar
    15    15    16   ar
    16    16    17   ar
    17    17    18   ar
    18    18    19   ar
    19    19    20   ar
    20    20    21   ar
    21    21    22   ar
    22    22    23   ar
    23    23    24   ar
    24    16    25   ar
    25    25    26   ar
    26     9     1   ar
    27    26    10   ar
    28     9     4   ar
    29    25    12   ar
    30    24    15   ar
    31    24    19   ar
    32     1    27    1
    33     3    28    1
    34     6    29    1
    35     7    30    1
    36     8    31    1
    37    11    32    1
    38    13    33    1
    39    17    34    1
    40    20    35    1
    41    21    36    1
    42    22    37    1
