@<TRIPOS>MOLECULE
*****
 48 55 0 0 0
SMALL
GASTEIGER

@<TRIPOS>ATOM
      1 C           7.0080    2.6286   -0.5091 C.ar    1  UNL1       -0.0166
      2 S           5.7549    3.4437   -1.3532 S.2     1  UNL1       -0.1039
      3 C           4.5757    2.2892   -0.8675 C.ar    1  UNL1       -0.0160
      4 C           5.1097    1.3167   -0.0516 C.ar    1  UNL1       -0.0017
      5 C           4.3909    0.2381    0.5035 C.ar    1  UNL1        0.0086
      6 C           5.2551   -0.6329    1.2252 C.ar    1  UNL1       -0.0519
      7 C           6.6625   -0.4298    1.3971 C.ar    1  UNL1       -0.0605
      8 C           7.3671    0.6644    0.8583 C.ar    1  UNL1       -0.0535
      9 C           6.5323    1.5095    0.1284 C.ar    1  UNL1       -0.0102
     10 C           2.9565    0.0069    0.3781 C.ar    1  UNL1        0.0726
     11 C           2.0133    0.9630    0.7130 C.ar    1  UNL1       -0.0213
     12 C           0.6640    0.6102    0.5648 C.ar    1  UNL1        0.0240
     13 S          -0.6678    1.6195    0.8379 S.2     1  UNL1       -0.0875
     14 C          -1.8377    0.4629    0.3183 C.ar    1  UNL1        0.0294
     15 C          -1.2134   -0.7854    0.1442 C.ar    1  UNL1        0.0067
     16 C           0.2615   -0.6523    0.1521 C.ar    1  UNL1        0.0156
     17 C           1.2954   -1.5438   -0.1917 C.ar    1  UNL1        0.0371
     18 N           2.6037   -1.2176   -0.0581 N.ar    1  UNL1       -0.2543
     19 C          -2.0663   -1.9320   -0.0610 C.ar    1  UNL1       -0.0084
     20 C          -1.5116   -3.2381   -0.0169 C.ar    1  UNL1       -0.0534
     21 C          -2.2694   -4.3814   -0.2560 C.ar    1  UNL1       -0.0611
     22 C          -3.6142   -4.2530   -0.5286 C.ar    1  UNL1       -0.0611
     23 C          -4.1973   -2.9847   -0.5244 C.ar    1  UNL1       -0.0534
     24 C          -3.4658   -1.7886   -0.2712 C.ar    1  UNL1       -0.0095
     25 C          -4.0697   -0.4980   -0.2072 C.ar    1  UNL1       -0.0085
     26 C          -5.4968   -0.3155   -0.4314 C.ar    1  UNL1       -0.0528
     27 C          -6.2221    0.8896   -0.3607 C.ar    1  UNL1       -0.0529
     28 C          -5.3973    1.9516   -0.0436 C.ar    1  UNL1       -0.0102
     29 C          -5.9148    3.2190    0.0669 C.ar    1  UNL1       -0.0166
     30 S          -4.6926    4.3503    0.4412 S.2     1  UNL1       -0.1039
     31 C          -3.4812    3.1273    0.4462 C.ar    1  UNL1       -0.0160
     32 C          -3.9705    1.8642    0.1890 C.ar    1  UNL1       -0.0021
     33 C          -3.2385    0.6364    0.1183 C.ar    1  UNL1        0.0052
     34 H           8.0178    3.0142   -0.5402 H       1  UNL1        0.0699
     35 H           3.5621    2.4035   -1.2247 H       1  UNL1        0.0700
     36 H           4.8158   -1.5210    1.6851 H       1  UNL1        0.0624
     37 H           7.2164   -1.1689    1.9768 H       1  UNL1        0.0618
     38 H           8.4317    0.8000    0.9950 H       1  UNL1        0.0624
     39 H           2.2995    1.9448    1.0736 H       1  UNL1        0.0650
     40 H           1.1304   -2.5269   -0.6143 H       1  UNL1        0.0836
     41 H          -0.4796   -3.4070    0.2638 H       1  UNL1        0.0624
     42 H          -1.8075   -5.3642   -0.2148 H       1  UNL1        0.0618
     43 H          -4.2229   -5.1330   -0.7192 H       1  UNL1        0.0618
     44 H          -5.2657   -2.9668   -0.7153 H       1  UNL1        0.0624
     45 H          -6.1137   -1.1769   -0.6822 H       1  UNL1        0.0624
     46 H          -7.2877    0.9437   -0.5399 H       1  UNL1        0.0624
     47 H          -6.9380    3.5476   -0.0551 H       1  UNL1        0.0699
     48 H          -2.4823    3.4724    0.6446 H       1  UNL1        0.0700
@<TRIPOS>BOND
     1     1     2   ar
     2     2     3   ar
     3     3     4   ar
     4     4     5   ar
     5     5     6   ar
     6     6     7   ar
     7     7     8   ar
     8     8     9   ar
     9     5    10    1
    10    10    11   ar
    11    11    12   ar
    12    12    13   ar
    13    13    14   ar
    14    14    15   ar
    15    15    16   ar
    16    16    17   ar
    17    17    18   ar
    18    15    19   ar
    19    19    20   ar
    20    20    21   ar
    21    21    22   ar
    22    22    23   ar
    23    23    24   ar
    24    24    25   ar
    25    25    26   ar
    26    26    27   ar
    27    27    28   ar
    28    28    29   ar
    29    29    30   ar
    30    30    31   ar
    31    31    32   ar
    32    32    33   ar
    33     9     1   ar
    34    18    10   ar
    35    24    19   ar
    36    33    25   ar
    37     9     4   ar
    38    16    12   ar
    39    32    28   ar
    40    33    14   ar
    41     1    34    1
    42     3    35    1
    43     6    36    1
    44     7    37    1
    45     8    38    1
    46    11    39    1
    47    17    40    1
    48    20    41    1
    49    21    42    1
    50    22    43    1
    51    23    44    1
    52    26    45    1
    53    27    46    1
    54    29    47    1
    55    31    48    1
