@<TRIPOS>MOLECULE
*****
 41 46 0 0 0
SMALL
GASTEIGER

@<TRIPOS>ATOM
      1 C           6.6463    0.3963    1.0511 C.ar    1  UNL1       -0.0166
      2 S           5.6666    1.2154    2.2009 S.2     1  UNL1       -0.1039
      3 C           4.2225    0.8576    1.3376 C.ar    1  UNL1       -0.0160
      4 C           4.4766    0.1403    0.1907 C.ar    1  UNL1       -0.0032
      5 C           3.4929   -0.2983   -0.7158 C.ar    1  UNL1       -0.0097
      6 C           4.0654   -1.0405   -1.7827 C.ar    1  UNL1       -0.0534
      7 C           5.4670   -1.3031   -1.9247 C.ar    1  UNL1       -0.0606
      8 C           6.4474   -0.8560   -1.0148 C.ar    1  UNL1       -0.0535
      9 C           5.8865   -0.1327    0.0372 C.ar    1  UNL1       -0.0103
     10 C           2.0652   -0.0373   -0.5905 C.ar    1  UNL1       -0.0166
     11 C           1.5468    1.2485   -0.7737 C.ar    1  UNL1       -0.0534
     12 C           0.1733    1.4901   -0.6581 C.ar    1  UNL1       -0.0513
     13 C          -0.7388    0.4566   -0.3580 C.ar    1  UNL1        0.0111
     14 C          -0.2131   -0.8373   -0.1794 C.ar    1  UNL1        0.0029
     15 C          -1.1093   -1.8527    0.1153 C.ar    1  UNL1        0.0361
     16 N          -2.4394   -1.6741    0.2380 N.ar    1  UNL1       -0.2522
     17 C          -2.9438   -0.4276    0.0656 C.ar    1  UNL1        0.0974
     18 C          -4.3296   -0.1977    0.1859 C.ar    1  UNL1        0.0110
     19 C          -5.2429   -1.2330    0.4859 C.ar    1  UNL1       -0.0519
     20 C          -6.6145   -0.9922    0.6026 C.ar    1  UNL1       -0.0611
     21 C          -7.1111    0.2933    0.4220 C.ar    1  UNL1       -0.0611
     22 C          -6.2365    1.3366    0.1251 C.ar    1  UNL1       -0.0525
     23 C          -4.8543    1.0982    0.0068 C.ar    1  UNL1        0.0023
     24 C          -3.9573    2.1131   -0.2874 C.ar    1  UNL1        0.0361
     25 N          -2.6272    1.9336   -0.4105 N.ar    1  UNL1       -0.2522
     26 C          -2.1247    0.6866   -0.2378 C.ar    1  UNL1        0.0974
     27 C           1.1706   -1.0756   -0.2978 C.ar    1  UNL1       -0.0448
     28 H           7.7173    0.3505    1.1920 H       1  UNL1        0.0699
     29 H           3.2747    1.1989    1.7309 H       1  UNL1        0.0700
     30 H           3.4017   -1.4324   -2.5557 H       1  UNL1        0.0624
     31 H           5.7917   -1.8817   -2.7904 H       1  UNL1        0.0618
     32 H           7.5016   -1.0650   -1.1392 H       1  UNL1        0.0624
     33 H           2.2100    2.0781   -1.0132 H       1  UNL1        0.0624
     34 H          -0.1904    2.5067   -0.8076 H       1  UNL1        0.0624
     35 H          -0.7772   -2.8767    0.2677 H       1  UNL1        0.0836
     36 H          -4.8780   -2.2495    0.6321 H       1  UNL1        0.0624
     37 H          -7.2897   -1.8121    0.8346 H       1  UNL1        0.0618
     38 H          -8.1775    0.4832    0.5123 H       1  UNL1        0.0618
     39 H          -6.6388    2.3379   -0.0136 H       1  UNL1        0.0624
     40 H          -4.2891    3.1372   -0.4386 H       1  UNL1        0.0836
     41 H           1.5594   -2.0829   -0.1518 H       1  UNL1        0.0630
@<TRIPOS>BOND
     1     1     2   ar
     2     2     3   ar
     3     3     4   ar
     4     4     5   ar
     5     5     6   ar
     6     6     7   ar
     7     7     8   ar
     8     8     9   ar
     9     5    10    1
    10    10    11   ar
    11    11    12   ar
    12    12    13   ar
    13    13    14   ar
    14    14    15   ar
    15    15    16   ar
    16    16    17   ar
    17    17    18   ar
    18    18    19   ar
    19    19    20   ar
    20    20    21   ar
    21    21    22   ar
    22    22    23   ar
    23    23    24   ar
    24    24    25   ar
    25    25    26   ar
    26    14    27   ar
    27     9     1   ar
    28    27    10   ar
    29     9     4   ar
    30    26    13   ar
    31    26    17   ar
    32    23    18   ar
    33     1    28    1
    34     3    29    1
    35     6    30    1
    36     7    31    1
    37     8    32    1
    38    11    33    1
    39    12    34    1
    40    15    35    1
    41    19    36    1
    42    20    37    1
    43    21    38    1
    44    22    39    1
    45    24    40    1
    46    27    41    1
