@<TRIPOS>MOLECULE
*****
 42 48 0 0 0
SMALL
GASTEIGER

@<TRIPOS>ATOM
      1 C          -6.2520    0.8431   -2.0676 C.ar    1  UNL1       -0.0166
      2 S          -5.0411    1.7510   -2.8812 S.2     1  UNL1       -0.1039
      3 C          -3.7759    1.0154   -1.9774 C.ar    1  UNL1       -0.0160
      4 C          -4.2604    0.1050   -1.0658 C.ar    1  UNL1       -0.0032
      5 C          -3.4632   -0.6551   -0.1887 C.ar    1  UNL1       -0.0097
      6 C          -4.2546   -1.5270    0.6057 C.ar    1  UNL1       -0.0534
      7 C          -5.6829   -1.6168    0.5318 C.ar    1  UNL1       -0.0606
      8 C          -6.4749   -0.8485   -0.3462 C.ar    1  UNL1       -0.0535
      9 C          -5.6997    0.0034   -1.1322 C.ar    1  UNL1       -0.0103
     10 C          -2.0107   -0.5751   -0.0952 C.ar    1  UNL1       -0.0166
     11 C          -1.2098   -1.6563   -0.4998 C.ar    1  UNL1       -0.0534
     12 C           0.1868   -1.6040   -0.4142 C.ar    1  UNL1       -0.0514
     13 C           0.8191   -0.4542    0.0892 C.ar    1  UNL1        0.0083
     14 C           2.2353   -0.3705    0.1876 C.ar    1  UNL1        0.0575
     15 N           3.2386   -1.2626   -0.1372 N.ar    1  UNL1       -0.3536
     16 C           4.4884   -0.7392    0.1363 C.ar    1  UNL1        0.0476
     17 C           5.7552   -1.3090   -0.0428 C.ar    1  UNL1       -0.0378
     18 C           6.8679   -0.5465    0.3235 C.ar    1  UNL1       -0.0598
     19 C           6.7184    0.7347    0.8480 C.ar    1  UNL1       -0.0611
     20 C           5.4461    1.2915    1.0215 C.ar    1  UNL1       -0.0519
     21 C           4.3070    0.5443    0.6603 C.ar    1  UNL1        0.0095
     22 C           2.9133    0.7320    0.6751 C.ar    1  UNL1        0.0361
     23 C           2.1653    1.8717    1.1134 C.ar    1  UNL1        0.1102
     24 N           2.7290    2.9699    1.5935 N.ar    1  UNL1       -0.1901
     25 S           1.4103    3.9413    1.9349 S.2     1  UNL1        0.1165
     26 N           0.1571    2.9391    1.4629 N.ar    1  UNL1       -0.1901
     27 C           0.7156    1.7925    1.0147 C.ar    1  UNL1        0.1083
     28 C           0.0232    0.6449    0.5080 C.ar    1  UNL1        0.0129
     29 C          -1.3832    0.5719    0.4139 C.ar    1  UNL1       -0.0441
     30 H          -7.2925    0.9790   -2.3280 H       1  UNL1        0.0699
     31 H          -2.7521    1.3018   -2.1753 H       1  UNL1        0.0700
     32 H          -3.7497   -2.1674    1.3312 H       1  UNL1        0.0624
     33 H          -6.1842   -2.3203    1.1976 H       1  UNL1        0.0618
     34 H          -7.5529   -0.9305   -0.3873 H       1  UNL1        0.0624
     35 H          -1.6791   -2.5550   -0.8981 H       1  UNL1        0.0624
     36 H           0.7573   -2.4665   -0.7454 H       1  UNL1        0.0624
     37 H           3.0872   -2.1814   -0.5257 H       1  UNL1        0.1659
     38 H           5.8782   -2.3069   -0.4512 H       1  UNL1        0.0638
     39 H           7.8658   -0.9604    0.1967 H       1  UNL1        0.0618
     40 H           7.5968    1.3118    1.1268 H       1  UNL1        0.0618
     41 H           5.3443    2.2925    1.4318 H       1  UNL1        0.0624
     42 H          -1.9873    1.4165    0.7444 H       1  UNL1        0.0630
@<TRIPOS>BOND
     1     1     2   ar
     2     2     3   ar
     3     3     4   ar
     4     4     5   ar
     5     5     6   ar
     6     6     7   ar
     7     7     8   ar
     8     8     9   ar
     9     5    10    1
    10    10    11   ar
    11    11    12   ar
    12    12    13   ar
    13    13    14   ar
    14    14    15   ar
    15    15    16   ar
    16    16    17   ar
    17    17    18   ar
    18    18    19   ar
    19    19    20   ar
    20    20    21   ar
    21    21    22   ar
    22    22    23   ar
    23    23    24   ar
    24    24    25   ar
    25    25    26   ar
    26    26    27   ar
    27    27    28   ar
    28    28    29   ar
    29     9     1   ar
    30    29    10   ar
    31     9     4   ar
    32    28    13   ar
    33    22    14   ar
    34    27    23   ar
    35    21    16   ar
    36     1    30    1
    37     3    31    1
    38     6    32    1
    39     7    33    1
    40     8    34    1
    41    11    35    1
    42    12    36    1
    43    15    37    1
    44    17    38    1
    45    18    39    1
    46    19    40    1
    47    20    41    1
    48    29    42    1
