@<TRIPOS>MOLECULE
*****
 47 54 0 0 0
SMALL
GASTEIGER

@<TRIPOS>ATOM
      1 C           2.9145   -2.1293   -1.5327 C.ar    1  UNL1       -0.0160
      2 S           1.7577   -3.0058   -2.4366 S.2     1  UNL1       -0.1038
      3 C           0.4713   -2.0628   -1.8110 C.ar    1  UNL1       -0.0160
      4 C           0.8777   -1.1798   -0.8317 C.ar    1  UNL1       -0.0019
      5 C           2.3324   -1.1429   -0.7657 C.ar    1  UNL1       -0.0011
      6 C           3.0811   -0.1951   -0.0539 C.ar    1  UNL1        0.0092
      7 C           2.2286    0.7893    0.4932 C.ar    1  UNL1       -0.0436
      8 C           0.7729    0.7770    0.4154 C.ar    1  UNL1       -0.0078
      9 C          -0.0600    1.8381    0.8616 C.ar    1  UNL1       -0.0025
     10 C           0.4539    3.0002    1.4005 C.ar    1  UNL1       -0.0160
     11 S          -0.7596    4.1285    1.8106 S.2     1  UNL1       -0.1038
     12 C          -1.9922    3.0735    1.2705 C.ar    1  UNL1       -0.0159
     13 C          -1.5149    1.8783    0.7702 C.ar    1  UNL1       -0.0005
     14 C          -2.3619    0.8177    0.2982 C.ar    1  UNL1        0.0175
     15 C          -3.8301    0.8771    0.1961 C.ar    1  UNL1        0.0799
     16 N          -4.5110    2.0328    0.3769 N.ar    1  UNL1       -0.2543
     17 C          -5.8598    2.0808    0.2598 C.ar    1  UNL1        0.0283
     18 C          -6.6461    0.9932   -0.0388 C.ar    1  UNL1       -0.0430
     19 C          -6.0051   -0.2165   -0.2236 C.ar    1  UNL1       -0.0505
     20 C          -4.5933   -0.2820   -0.1104 C.ar    1  UNL1        0.0092
     21 C          -3.8069   -1.4531   -0.2228 C.ar    1  UNL1       -0.0011
     22 C          -4.3483   -2.7117   -0.3731 C.ar    1  UNL1       -0.0160
     23 S          -3.1531   -3.9332   -0.2917 S.2     1  UNL1       -0.1038
     24 C          -1.9135   -2.7751   -0.0556 C.ar    1  UNL1       -0.0160
     25 C          -2.3647   -1.4760   -0.1698 C.ar    1  UNL1       -0.0019
     26 C          -1.5198   -0.3305   -0.0365 C.ar    1  UNL1        0.0013
     27 C          -0.0216   -0.2880   -0.1465 C.ar    1  UNL1       -0.0007
     28 C           4.5378   -0.1580    0.0396 C.ar    1  UNL1        0.0716
     29 C           5.2707    0.9831   -0.2860 C.ar    1  UNL1       -0.0357
     30 C           6.6575    0.9603   -0.1555 C.ar    1  UNL1       -0.0583
     31 C           7.2783   -0.1950    0.2998 C.ar    1  UNL1       -0.0436
     32 C           6.4823   -1.2847    0.6048 C.ar    1  UNL1        0.0283
     33 N           5.1364   -1.2906    0.4844 N.ar    1  UNL1       -0.2550
     34 H           3.9636   -2.3659   -1.6508 H       1  UNL1        0.0700
     35 H          -0.5159   -2.2283   -2.2165 H       1  UNL1        0.0700
     36 H           2.7125    1.6127    1.0171 H       1  UNL1        0.0631
     37 H           1.4798    3.2808    1.5851 H       1  UNL1        0.0700
     38 H          -3.0078    3.4212    1.3763 H       1  UNL1        0.0700
     39 H          -6.2986    3.0617    0.4211 H       1  UNL1        0.0830
     40 H          -7.7226    1.0843   -0.1196 H       1  UNL1        0.0633
     41 H          -6.5972   -1.0962   -0.4529 H       1  UNL1        0.0625
     42 H          -5.3819   -3.0088   -0.4753 H       1  UNL1        0.0700
     43 H          -0.9173   -3.1387    0.1527 H       1  UNL1        0.0700
     44 H           4.7756    1.8785   -0.6484 H       1  UNL1        0.0639
     45 H           7.2463    1.8374   -0.4085 H       1  UNL1        0.0619
     46 H           8.3551   -0.2463    0.4141 H       1  UNL1        0.0633
     47 H           6.9172   -2.2123    0.9660 H       1  UNL1        0.0830
@<TRIPOS>BOND
     1     1     2   ar
     2     2     3   ar
     3     3     4   ar
     4     4     5   ar
     5     5     6   ar
     6     6     7   ar
     7     7     8   ar
     8     8     9   ar
     9     9    10   ar
    10    10    11   ar
    11    11    12   ar
    12    12    13   ar
    13    13    14   ar
    14    14    15   ar
    15    15    16   ar
    16    16    17   ar
    17    17    18   ar
    18    18    19   ar
    19    19    20   ar
    20    20    21   ar
    21    21    22   ar
    22    22    23   ar
    23    23    24   ar
    24    24    25   ar
    25    25    26   ar
    26    26    27   ar
    27     6    28    1
    28    28    29   ar
    29    29    30   ar
    30    30    31   ar
    31    31    32   ar
    32    32    33   ar
    33     5     1   ar
    34    27     8   ar
    35    33    28   ar
    36    27     4   ar
    37    13     9   ar
    38    26    14   ar
    39    20    15   ar
    40    25    21   ar
    41     1    34    1
    42     3    35    1
    43     7    36    1
    44    10    37    1
    45    12    38    1
    46    17    39    1
    47    18    40    1
    48    19    41    1
    49    22    42    1
    50    24    43    1
    51    29    44    1
    52    30    45    1
    53    31    46    1
    54    32    47    1
