@<TRIPOS>MOLECULE
*****
 43 49 0 0 0
SMALL
GASTEIGER

@<TRIPOS>ATOM
      1 C           2.4532    0.9094   -2.2737 C.ar    1  UNL1       -0.0160
      2 S           1.4443    0.8188   -3.6496 S.2     1  UNL1       -0.1038
      3 C           0.0633    0.4761   -2.6881 C.ar    1  UNL1       -0.0159
      4 C           0.3257    0.4996   -1.3364 C.ar    1  UNL1       -0.0005
      5 C           1.7535    0.6794   -1.1105 C.ar    1  UNL1       -0.0019
      6 C           2.3528    0.6320    0.1508 C.ar    1  UNL1        0.0011
      7 C           1.4171    0.3399    1.1618 C.ar    1  UNL1       -0.0268
      8 C           0.0296    0.1568    0.9768 C.ar    1  UNL1        0.0728
      9 N          -0.6274   -0.1438    2.0909 N.ar    1  UNL1       -0.2543
     10 C          -1.9645   -0.3383    2.0292 C.ar    1  UNL1        0.0366
     11 C          -2.7764   -0.2049    0.9001 C.ar    1  UNL1        0.0085
     12 C          -4.2087   -0.3974    0.9391 C.ar    1  UNL1       -0.0087
     13 C          -4.9426   -0.8055    2.0854 C.ar    1  UNL1       -0.0534
     14 C          -6.3310   -0.9739    2.0656 C.ar    1  UNL1       -0.0611
     15 C          -7.0385   -0.7384    0.8978 C.ar    1  UNL1       -0.0612
     16 C          -6.3557   -0.3353   -0.2455 C.ar    1  UNL1       -0.0540
     17 C          -4.9600   -0.1659   -0.2339 C.ar    1  UNL1       -0.0172
     18 C          -4.3087    0.2528   -1.3888 C.ar    1  UNL1       -0.0534
     19 C          -2.9220    0.4165   -1.4100 C.ar    1  UNL1       -0.0527
     20 C          -2.1017    0.1563   -0.2923 C.ar    1  UNL1       -0.0061
     21 C          -0.6449    0.2755   -0.2830 C.ar    1  UNL1        0.0163
     22 C           3.7737    0.8101    0.3984 C.ar    1  UNL1        0.0474
     23 S           4.2968    2.1799    1.3081 S.2     1  UNL1       -0.0923
     24 C           5.9507    1.7389    1.1901 C.ar    1  UNL1        0.0038
     25 C           6.1066    0.5767    0.4805 C.ar    1  UNL1        0.0968
     26 N           7.3224    0.0100    0.2444 N.ar    1  UNL1       -0.2514
     27 C           7.1844   -1.1362   -0.4781 C.ar    1  UNL1        0.0464
     28 C           5.9680   -1.6671   -0.9255 C.ar    1  UNL1        0.0464
     29 N           4.7430   -1.1162   -0.7052 N.ar    1  UNL1       -0.2508
     30 C           4.8498    0.0347    0.0213 C.ar    1  UNL1        0.1039
     31 H           3.5095    1.0968   -2.4093 H       1  UNL1        0.0700
     32 H          -0.8444    0.2599   -3.2236 H       1  UNL1        0.0700
     33 H           1.7907    0.2344    2.1830 H       1  UNL1        0.0645
     34 H          -2.3780   -0.5995    2.9988 H       1  UNL1        0.0836
     35 H          -4.4427   -1.0099    3.0283 H       1  UNL1        0.0624
     36 H          -6.8527   -1.2897    2.9655 H       1  UNL1        0.0618
     37 H          -8.1172   -0.8661    0.8743 H       1  UNL1        0.0618
     38 H          -6.9257   -0.1515   -1.1542 H       1  UNL1        0.0624
     39 H          -4.8720    0.4701   -2.2945 H       1  UNL1        0.0624
     40 H          -2.5117    0.8071   -2.3315 H       1  UNL1        0.0624
     41 H           6.7203    2.3461    1.6438 H       1  UNL1        0.0715
     42 H           8.1165   -1.6474   -0.7028 H       1  UNL1        0.0845
     43 H           5.9546   -2.5909   -1.4975 H       1  UNL1        0.0845
@<TRIPOS>BOND
     1     1     2   ar
     2     2     3   ar
     3     3     4   ar
     4     4     5   ar
     5     5     6   ar
     6     6     7   ar
     7     7     8   ar
     8     8     9   ar
     9     9    10   ar
    10    10    11   ar
    11    11    12   ar
    12    12    13   ar
    13    13    14   ar
    14    14    15   ar
    15    15    16   ar
    16    16    17   ar
    17    17    18   ar
    18    18    19   ar
    19    19    20   ar
    20    20    21   ar
    21     6    22    1
    22    22    23   ar
    23    23    24   ar
    24    24    25   ar
    25    25    26   ar
    26    26    27   ar
    27    27    28   ar
    28    28    29   ar
    29    29    30   ar
    30     5     1   ar
    31    21     8   ar
    32    30    22   ar
    33    21     4   ar
    34    30    25   ar
    35    20    11   ar
    36    17    12   ar
    37     1    31    1
    38     3    32    1
    39     7    33    1
    40    10    34    1
    41    13    35    1
    42    14    36    1
    43    15    37    1
    44    16    38    1
    45    18    39    1
    46    19    40    1
    47    24    41    1
    48    27    42    1
    49    28    43    1
