@<TRIPOS>MOLECULE
*****
 44 51 0 0 0
SMALL
GASTEIGER

@<TRIPOS>ATOM
      1 C           4.3879   -2.0903   -0.6609 C.ar    1  UNL1       -0.0159
      2 S           3.9234   -3.7324   -0.8783 S.2     1  UNL1       -0.1038
      3 C           2.2572   -3.3426   -0.7599 C.ar    1  UNL1       -0.0159
      4 C           2.1029   -2.0020   -0.5624 C.ar    1  UNL1        0.0012
      5 C           3.3196   -1.2287   -0.4976 C.ar    1  UNL1        0.0006
      6 C           3.4450    0.1727   -0.3018 C.ar    1  UNL1        0.0309
      7 C           2.1747    0.7976   -0.1647 C.ar    1  UNL1       -0.0074
      8 C           0.9813    0.0610   -0.2253 C.ar    1  UNL1        0.1376
      9 O          -0.2625    0.6049   -0.1007 O.2     1  UNL1       -0.4541
     10 C          -1.1943   -0.4013   -0.2096 C.ar    1  UNL1        0.1467
     11 C          -0.4990   -1.5882   -0.4055 C.ar    1  UNL1        0.0573
     12 C          -1.2681   -2.7797   -0.5470 C.ar    1  UNL1        0.1118
     13 N          -0.7450   -3.9775   -0.7380 N.ar    1  UNL1       -0.1900
     14 S          -2.0755   -4.9792   -0.8313 S.2     1  UNL1        0.1165
     15 N          -3.2983   -3.8648   -0.6259 N.ar    1  UNL1       -0.1901
     16 C          -2.7160   -2.6543   -0.4747 C.ar    1  UNL1        0.1084
     17 C          -3.3905   -1.4085   -0.2711 C.ar    1  UNL1        0.0144
     18 C          -4.7917   -1.3594   -0.2115 C.ar    1  UNL1       -0.0512
     19 C          -5.4383   -0.1448   -0.0134 C.ar    1  UNL1       -0.0534
     20 C          -4.7164    1.0464    0.1298 C.ar    1  UNL1       -0.0172
     21 C          -5.4234    2.2445    0.3277 C.ar    1  UNL1       -0.0540
     22 C          -4.7592    3.4579    0.4763 C.ar    1  UNL1       -0.0612
     23 C          -3.3756    3.4864    0.4284 C.ar    1  UNL1       -0.0611
     24 C          -2.6593    2.3012    0.2320 C.ar    1  UNL1       -0.0533
     25 C          -3.2947    1.0416    0.0757 C.ar    1  UNL1       -0.0066
     26 C          -2.6165   -0.2213   -0.1304 C.ar    1  UNL1        0.0349
     27 C           0.8629   -1.2994   -0.4154 C.ar    1  UNL1        0.0383
     28 C           4.6884    0.9655   -0.2352 C.ar    1  UNL1        0.1637
     29 N           5.8710    0.3639   -0.3659 N.ar    1  UNL1       -0.2160
     30 C           6.9319    1.1657   -0.2911 C.ar    1  UNL1        0.1200
     31 N           6.9089    2.4799   -0.1021 N.ar    1  UNL1       -0.2241
     32 C           5.6836    2.9773    0.0153 C.ar    1  UNL1        0.1200
     33 N           4.5487    2.2841   -0.0411 N.ar    1  UNL1       -0.2160
     34 H           5.4475   -1.8874   -0.6716 H       1  UNL1        0.0700
     35 H           1.5428   -4.1415   -0.8474 H       1  UNL1        0.0700
     36 H           2.1088    1.8726   -0.0085 H       1  UNL1        0.0662
     37 H          -5.3860   -2.2652   -0.3187 H       1  UNL1        0.0624
     38 H          -6.5263   -0.1391    0.0283 H       1  UNL1        0.0624
     39 H          -6.5112    2.2424    0.3683 H       1  UNL1        0.0624
     40 H          -5.3219    4.3747    0.6286 H       1  UNL1        0.0618
     41 H          -2.8437    4.4274    0.5430 H       1  UNL1        0.0618
     42 H          -1.5783    2.3920    0.2043 H       1  UNL1        0.0624
     43 H           7.9065    0.7005   -0.3944 H       1  UNL1        0.1048
     44 H           5.5987    4.0473    0.1717 H       1  UNL1        0.1048
@<TRIPOS>BOND
     1     1     2   ar
     2     2     3   ar
     3     3     4   ar
     4     4     5   ar
     5     5     6   ar
     6     6     7   ar
     7     7     8   ar
     8     8     9   ar
     9     9    10   ar
    10    10    11   ar
    11    11    12   ar
    12    12    13   ar
    13    13    14   ar
    14    14    15   ar
    15    15    16   ar
    16    16    17   ar
    17    17    18   ar
    18    18    19   ar
    19    19    20   ar
    20    20    21   ar
    21    21    22   ar
    22    22    23   ar
    23    23    24   ar
    24    24    25   ar
    25    25    26   ar
    26    11    27   ar
    27     6    28    1
    28    28    29   ar
    29    29    30   ar
    30    30    31   ar
    31    31    32   ar
    32    32    33   ar
    33     5     1   ar
    34    27     8   ar
    35    33    28   ar
    36    27     4   ar
    37    26    10   ar
    38    16    12   ar
    39    26    17   ar
    40    25    20   ar
    41     1    34    1
    42     3    35    1
    43     7    36    1
    44    18    37    1
    45    19    38    1
    46    21    39    1
    47    22    40    1
    48    23    41    1
    49    24    42    1
    50    30    43    1
    51    32    44    1
