@<TRIPOS>MOLECULE
*****
 40 46 0 0 0
SMALL
GASTEIGER

@<TRIPOS>ATOM
      1 C          -0.4192   -0.5254   -3.6180 C.ar    1  UNL1       -0.0160
      2 S          -1.8994   -0.7668   -4.4772 S.2     1  UNL1       -0.1038
      3 C          -2.8554   -0.6475   -3.0366 C.ar    1  UNL1       -0.0159
      4 C          -2.0534   -0.4309   -1.9494 C.ar    1  UNL1       -0.0004
      5 C          -0.6811   -0.3634   -2.2854 C.ar    1  UNL1       -0.0010
      6 C           0.3363   -0.1447   -1.3127 C.ar    1  UNL1        0.0105
      7 C           1.7216   -0.0421   -1.4022 C.ar    1  UNL1       -0.0279
      8 C           2.1915    0.1762   -0.1021 C.ar    1  UNL1        0.0497
      9 N           1.0621    0.1961    0.7215 N.ar    1  UNL1       -0.3525
     10 C          -0.0643    0.0006   -0.0179 C.ar    1  UNL1        0.0718
     11 C          -1.5516   -0.0713    0.3559 C.ar    1  UNL1        0.0723
     12 N          -2.1835    0.0416    1.5541 N.ar    1  UNL1       -0.3525
     13 C          -3.5510   -0.0971    1.3715 C.ar    1  UNL1        0.0475
     14 C          -4.5804   -0.0516    2.3212 C.ar    1  UNL1       -0.0378
     15 C          -5.8915   -0.2224    1.8718 C.ar    1  UNL1       -0.0598
     16 C          -6.1632   -0.4309    0.5235 C.ar    1  UNL1       -0.0611
     17 C          -5.1272   -0.4748   -0.4183 C.ar    1  UNL1       -0.0520
     18 C          -3.7913   -0.3062    0.0002 C.ar    1  UNL1        0.0081
     19 C          -2.5173   -0.2828   -0.5967 C.ar    1  UNL1        0.0176
     20 C           3.5591    0.3609    0.4139 C.ar    1  UNL1        0.0265
     21 C           3.8458    0.5743    1.7874 C.ar    1  UNL1       -0.0504
     22 C           5.1490    0.7549    2.3126 C.ar    1  UNL1       -0.0590
     23 C           6.3016    0.7408    1.5177 C.ar    1  UNL1       -0.0335
     24 C           6.0995    0.5332    0.1345 C.ar    1  UNL1        0.1005
     25 N           7.0764    0.4875   -0.7842 N.ar    1  UNL1       -0.1908
     26 S           6.3359    0.2248   -2.2424 S.2     1  UNL1        0.1165
     27 N           4.7500    0.1575   -1.7767 N.ar    1  UNL1       -0.1901
     28 C           4.7080    0.3380   -0.4431 C.ar    1  UNL1        0.1089
     29 H           0.5245   -0.5198   -4.1449 H       1  UNL1        0.0700
     30 H          -3.9260   -0.7466   -3.1111 H       1  UNL1        0.0700
     31 H           2.3242   -0.1155   -2.2967 H       1  UNL1        0.0645
     32 H           1.0724    0.3346    1.7194 H       1  UNL1        0.1660
     33 H          -1.7405    0.2014    2.4460 H       1  UNL1        0.1660
     34 H          -4.3741    0.1108    3.3742 H       1  UNL1        0.0638
     35 H          -6.7110   -0.1918    2.5862 H       1  UNL1        0.0618
     36 H          -7.1912   -0.5617    0.1939 H       1  UNL1        0.0618
     37 H          -5.3734   -0.6391   -1.4610 H       1  UNL1        0.0624
     38 H           3.0337    0.6068    2.5113 H       1  UNL1        0.0625
     39 H           5.2610    0.9123    3.3861 H       1  UNL1        0.0618
     40 H           7.2934    0.8801    1.9306 H       1  UNL1        0.0640
@<TRIPOS>BOND
     1     1     2   ar
     2     2     3   ar
     3     3     4   ar
     4     4     5   ar
     5     5     6   ar
     6     6     7   ar
     7     7     8   ar
     8     8     9   ar
     9     9    10   ar
    10    10    11   ar
    11    11    12   ar
    12    12    13   ar
    13    13    14   ar
    14    14    15   ar
    15    15    16   ar
    16    16    17   ar
    17    17    18   ar
    18    18    19   ar
    19     8    20    1
    20    20    21   ar
    21    21    22   ar
    22    22    23   ar
    23    23    24   ar
    24    24    25   ar
    25    25    26   ar
    26    26    27   ar
    27    27    28   ar
    28     5     1   ar
    29    10     6   ar
    30    19    11   ar
    31    28    20   ar
    32    19     4   ar
    33    28    24   ar
    34    18    13   ar
    35     1    29    1
    36     3    30    1
    37     7    31    1
    38     9    32    1
    39    12    33    1
    40    14    34    1
    41    15    35    1
    42    16    36    1
    43    17    37    1
    44    21    38    1
    45    22    39    1
    46    23    40    1
