@<TRIPOS>MOLECULE
*****
 48 55 0 0 0
SMALL
GASTEIGER

@<TRIPOS>ATOM
      1 SI         -7.1745    0.7807   -0.8513 Si      1  UNL1        0.0000
      2 C          -7.0909    0.1308    0.8948 C.2     1  UNL1        0.0000
      3 C          -5.8160   -0.1035    1.2605 C.ar    1  UNL1        0.0000
      4 C          -5.4295   -0.5112    2.6048 C.ar    1  UNL1        0.0000
      5 C          -4.1279   -0.6282    2.9263 C.ar    1  UNL1        0.0000
      6 C          -3.1569   -0.3995    1.9042 C.ar    1  UNL1        0.0000
      7 O          -1.8005   -0.4757    2.0986 O.2     1  UNL1        0.0000
      8 C          -1.1910   -0.2773    0.8908 C.ar    1  UNL1        0.0000
      9 C          -2.1750   -0.0892   -0.0665 C.ar    1  UNL1        0.0000
     10 C          -1.6997    0.0222   -1.4093 C.ar    1  UNL1        0.0000
     11 C          -2.3525    0.0694   -2.6045 C.ar    1  UNL1        0.0000
     12 N          -1.3644    0.1579   -3.5654 N.ar    1  UNL1        0.0000
     13 C          -0.1165    0.1179   -2.9736 C.ar    1  UNL1        0.0000
     14 C          -0.2989    0.0088   -1.6123 C.ar    1  UNL1        0.0000
     15 C           0.7305   -0.1229   -0.6498 C.ar    1  UNL1        0.0000
     16 C           2.1258   -0.1349   -0.8492 C.ar    1  UNL1        0.0000
     17 C           2.9598   -0.3024    0.2557 C.ar    1  UNL1        0.0000
     18 N           2.4743   -0.4631    1.5155 N.ar    1  UNL1        0.0000
     19 C           1.1290   -0.4540    1.6908 C.ar    1  UNL1        0.0000
     20 C           0.2137   -0.2852    0.6555 C.ar    1  UNL1        0.0000
     21 C           4.4131   -0.3452    0.1149 C.ar    1  UNL1        0.0000
     22 C           5.0939   -1.1716   -0.8251 C.ar    1  UNL1        0.0000
     23 C           6.5170   -1.2244   -0.9869 C.ar    1  UNL1        0.0000
     24 C           7.4211   -0.4541   -0.2297 C.ar    1  UNL1        0.0000
     25 C           6.7625    0.3587    0.6918 C.ar    1  UNL1        0.0000
     26 C           7.4422    1.2025    1.5354 C.ar    1  UNL1        0.0000
     27 S           6.3616    2.0817    2.5397 S.2     1  UNL1        0.0000
     28 C           4.9828    1.3272    1.8423 C.ar    1  UNL1        0.0000
     29 C           5.3286    0.4178    0.8681 C.ar    1  UNL1        0.0000
     30 C          -3.4233   -0.0722    0.5621 C.ar    1  UNL1        0.0000
     31 C          -4.7915    0.1606    0.2009 C.ar    1  UNL1        0.0000
     32 C          -5.3080    0.6819   -0.9268 C.2     1  UNL1        0.0000
     33 H          -7.8249   -0.1710   -1.7837 H       1  UNL1        0.0000
     34 H          -7.6682    2.1769   -0.9159 H       1  UNL1        0.0000
     35 H          -7.9761    0.0307    1.5027 H       1  UNL1        0.0000
     36 H          -6.2016   -0.6840    3.3468 H       1  UNL1        0.0000
     37 H          -3.8009   -0.9066    3.9207 H       1  UNL1        0.0000
     38 H          -3.3861    0.0176   -2.9026 H       1  UNL1        0.0000
     39 H          -1.5302    0.2091   -4.5625 H       1  UNL1        0.0000
     40 H           0.7722    0.1502   -3.5889 H       1  UNL1        0.0000
     41 H           2.5428   -0.0084   -1.8417 H       1  UNL1        0.0000
     42 H           0.8034   -0.5883    2.7192 H       1  UNL1        0.0000
     43 H           4.4995   -1.8296   -1.4617 H       1  UNL1        0.0000
     44 H           6.9204   -1.9053   -1.7372 H       1  UNL1        0.0000
     45 H           8.4931   -0.5065   -0.3644 H       1  UNL1        0.0000
     46 H           8.5079    1.3607    1.6239 H       1  UNL1        0.0000
     47 H           3.9980    1.5953    2.2001 H       1  UNL1        0.0000
     48 H          -4.7885    1.0556   -1.7875 H       1  UNL1        0.0000
@<TRIPOS>BOND
     1     1     2    1
     2     2     3    2
     3     3     4   ar
     4     4     5   ar
     5     5     6   ar
     6     6     7   ar
     7     7     8   ar
     8     8     9   ar
     9     9    10   ar
    10    10    11   ar
    11    11    12   ar
    12    12    13   ar
    13    13    14   ar
    14    14    15   ar
    15    15    16   ar
    16    16    17   ar
    17    17    18   ar
    18    18    19   ar
    19    19    20   ar
    20    17    21    1
    21    21    22   ar
    22    22    23   ar
    23    23    24   ar
    24    24    25   ar
    25    25    26   ar
    26    26    27   ar
    27    27    28   ar
    28    28    29   ar
    29     9    30   ar
    30    30    31   ar
    31    31    32    2
    32    32     1    1
    33    31     3   ar
    34    30     6   ar
    35    20     8   ar
    36    29    21   ar
    37    14    10   ar
    38    20    15   ar
    39    29    25   ar
    40     1    33    1
    41     1    34    1
    42     2    35    1
    43     4    36    1
    44     5    37    1
    45    11    38    1
    46    12    39    1
    47    13    40    1
    48    16    41    1
    49    19    42    1
    50    22    43    1
    51    23    44    1
    52    24    45    1
    53    26    46    1
    54    28    47    1
    55    32    48    1
