@<TRIPOS>MOLECULE
*****
 44 51 0 0 0
SMALL
GASTEIGER

@<TRIPOS>ATOM
      1 C          -1.2693   -3.3911   -0.4500 C.ar    1  UNL1       -0.0159
      2 S          -2.8198   -4.1422   -0.3743 S.2     1  UNL1       -0.1038
      3 C          -3.6308   -2.6322   -0.1175 C.ar    1  UNL1       -0.0159
      4 C          -2.7388   -1.5953   -0.0918 C.ar    1  UNL1        0.0013
      5 C          -1.4045   -2.0405   -0.2812 C.ar    1  UNL1        0.0007
      6 C          -0.2907   -1.1593   -0.2953 C.ar    1  UNL1        0.0327
      7 C           1.0773   -1.3496   -0.4619 C.ar    1  UNL1       -0.0073
      8 C           1.6147   -0.0710   -0.3641 C.ar    1  UNL1        0.1370
      9 O           0.6187    0.8611   -0.1659 O.2     1  UNL1       -0.4511
     10 C          -0.5501    0.1699   -0.1187 C.ar    1  UNL1        0.1789
     11 C          -1.9897    0.6689    0.0863 C.ar    1  UNL1        0.1795
     12 O          -2.4102    1.9496    0.2729 O.2     1  UNL1       -0.4510
     13 C          -3.7729    1.8952    0.4094 C.ar    1  UNL1        0.1386
     14 C          -4.5909    3.0132    0.6203 C.ar    1  UNL1       -0.0166
     15 C          -5.9745    2.8242    0.7437 C.ar    1  UNL1       -0.0300
     16 C          -6.4522    1.4973    0.6449 C.ar    1  UNL1        0.1007
     17 N          -7.7433    1.1263    0.7382 N.ar    1  UNL1       -0.1908
     18 S          -7.7822   -0.5357    0.5564 S.2     1  UNL1        0.1165
     19 N          -6.1537   -0.8594    0.3497 N.ar    1  UNL1       -0.1900
     20 C          -5.5930    0.3345    0.4246 C.ar    1  UNL1        0.1112
     21 C          -4.1900    0.5759    0.3050 C.ar    1  UNL1        0.0567
     22 C          -3.0613   -0.2045    0.0994 C.ar    1  UNL1        0.0420
     23 C           2.9693    0.4698   -0.4551 C.ar    1  UNL1        0.0250
     24 C           3.1810    1.5369   -1.3467 C.ar    1  UNL1       -0.0505
     25 C           4.4502    2.0729   -1.5330 C.ar    1  UNL1       -0.0605
     26 C           5.5293    1.5492   -0.8287 C.ar    1  UNL1       -0.0540
     27 C           5.3547    0.4960    0.0813 C.ar    1  UNL1       -0.0172
     28 C           6.4613   -0.0029    0.7888 C.ar    1  UNL1       -0.0540
     29 C           6.3183   -1.0336    1.7154 C.ar    1  UNL1       -0.0612
     30 C           5.0631   -1.5745    1.9528 C.ar    1  UNL1       -0.0611
     31 C           3.9532   -1.0913    1.2549 C.ar    1  UNL1       -0.0534
     32 C           4.0639   -0.0572    0.2915 C.ar    1  UNL1       -0.0072
     33 H          -0.3828   -3.9886   -0.6112 H       1  UNL1        0.0700
     34 H          -4.7015   -2.6527   -0.0090 H       1  UNL1        0.0700
     35 H           1.6311   -2.2603   -0.6370 H       1  UNL1        0.0662
     36 H          -4.1556    4.0060    0.6864 H       1  UNL1        0.0655
     37 H          -6.6519    3.6546    0.9078 H       1  UNL1        0.0641
     38 H           2.3459    1.9487   -1.9112 H       1  UNL1        0.0625
     39 H           4.5982    2.8944   -2.2288 H       1  UNL1        0.0618
     40 H           6.5156    1.9796   -0.9904 H       1  UNL1        0.0624
     41 H           7.4523    0.4162    0.6261 H       1  UNL1        0.0624
     42 H           7.1848   -1.4039    2.2564 H       1  UNL1        0.0618
     43 H           4.9404   -2.3678    2.6856 H       1  UNL1        0.0618
     44 H           2.9862   -1.5270    1.4925 H       1  UNL1        0.0624
@<TRIPOS>BOND
     1     1     2   ar
     2     2     3   ar
     3     3     4   ar
     4     4     5   ar
     5     5     6   ar
     6     6     7   ar
     7     7     8   ar
     8     8     9   ar
     9     9    10   ar
    10    10    11   ar
    11    11    12   ar
    12    12    13   ar
    13    13    14   ar
    14    14    15   ar
    15    15    16   ar
    16    16    17   ar
    17    17    18   ar
    18    18    19   ar
    19    19    20   ar
    20    20    21   ar
    21    21    22   ar
    22     8    23    1
    23    23    24   ar
    24    24    25   ar
    25    25    26   ar
    26    26    27   ar
    27    27    28   ar
    28    28    29   ar
    29    29    30   ar
    30    30    31   ar
    31    31    32   ar
    32     5     1   ar
    33    10     6   ar
    34    22    11   ar
    35    32    23   ar
    36    22     4   ar
    37    32    27   ar
    38    21    13   ar
    39    20    16   ar
    40     1    33    1
    41     3    34    1
    42     7    35    1
    43    14    36    1
    44    15    37    1
    45    24    38    1
    46    25    39    1
    47    26    40    1
    48    28    41    1
    49    29    42    1
    50    30    43    1
    51    31    44    1
