@<TRIPOS>MOLECULE
*****
 36 42 0 0 0
SMALL
GASTEIGER

@<TRIPOS>ATOM
      1 C           1.0492   -3.6146   -0.1179 C.ar    1  UNL1       -0.0159
      2 S           2.6794   -4.1909   -0.1692 S.2     1  UNL1       -0.1038
      3 C           3.3410   -2.5889   -0.1424 C.ar    1  UNL1       -0.0159
      4 C           2.3337   -1.6644   -0.0960 C.ar    1  UNL1        0.0013
      5 C           1.0453   -2.2476   -0.0824 C.ar    1  UNL1        0.0007
      6 C          -0.1455   -1.4688   -0.0357 C.ar    1  UNL1        0.0327
      7 C          -1.4990   -1.7931   -0.0139 C.ar    1  UNL1       -0.0072
      8 C          -2.1542   -0.5631    0.0326 C.ar    1  UNL1        0.1400
      9 O          -1.2326    0.4605    0.0385 O.2     1  UNL1       -0.4510
     10 C          -0.0023   -0.1095   -0.0037 C.ar    1  UNL1        0.1789
     11 C           1.3955    0.5324   -0.0182 C.ar    1  UNL1        0.1795
     12 O           1.7455    1.8436    0.0080 O.2     1  UNL1       -0.4510
     13 C           3.1153    1.8750   -0.0217 C.ar    1  UNL1        0.1393
     14 C           3.8772    3.0327   -0.0087 C.ar    1  UNL1       -0.0006
     15 C           5.2405    2.8048   -0.0450 C.ar    1  UNL1        0.0311
     16 N           5.8232    1.5833   -0.0896 N.ar    1  UNL1       -0.2624
     17 C           5.0447    0.4697   -0.1011 C.ar    1  UNL1        0.0389
     18 C           3.6553    0.5845   -0.0672 C.ar    1  UNL1        0.0467
     19 C           2.5280   -0.2450   -0.0635 C.ar    1  UNL1        0.0413
     20 C          -3.5575   -0.1872    0.0736 C.ar    1  UNL1        0.0635
     21 C          -4.5996   -1.1263    0.0725 C.ar    1  UNL1        0.0404
     22 N          -5.9547   -0.8981    0.1085 N.ar    1  UNL1       -0.2603
     23 C          -6.4395    0.3745    0.1524 C.ar    1  UNL1        0.0557
     24 C          -5.5156    1.4374    0.1594 C.ar    1  UNL1        0.1186
     25 N          -5.8165    2.7455    0.2000 N.ar    1  UNL1       -0.1892
     26 S          -4.3706    3.5569    0.1889 S.2     1  UNL1        0.1165
     27 N          -3.3092    2.2901    0.1324 N.ar    1  UNL1       -0.1900
     28 C          -4.0288    1.1528    0.1189 C.ar    1  UNL1        0.1134
     29 H           0.2262   -4.3155   -0.1177 H       1  UNL1        0.0700
     30 H           4.4129   -2.4647   -0.1631 H       1  UNL1        0.0700
     31 H          -1.9600   -2.7697   -0.0290 H       1  UNL1        0.0662
     32 H           3.4392    4.0193    0.0267 H       1  UNL1        0.0670
     33 H           5.9372    3.6400   -0.0388 H       1  UNL1        0.0831
     34 H           5.5759   -0.4730   -0.1374 H       1  UNL1        0.0837
     35 H          -4.3668   -2.1910    0.0396 H       1  UNL1        0.0837
     36 H          -7.5127    0.5084    0.1798 H       1  UNL1        0.0852
@<TRIPOS>BOND
     1     1     2   ar
     2     2     3   ar
     3     3     4   ar
     4     4     5   ar
     5     5     6   ar
     6     6     7   ar
     7     7     8   ar
     8     8     9   ar
     9     9    10   ar
    10    10    11   ar
    11    11    12   ar
    12    12    13   ar
    13    13    14   ar
    14    14    15   ar
    15    15    16   ar
    16    16    17   ar
    17    17    18   ar
    18    18    19   ar
    19     8    20    1
    20    20    21   ar
    21    21    22   ar
    22    22    23   ar
    23    23    24   ar
    24    24    25   ar
    25    25    26   ar
    26    26    27   ar
    27    27    28   ar
    28     5     1   ar
    29    10     6   ar
    30    19    11   ar
    31    28    20   ar
    32    19     4   ar
    33    28    24   ar
    34    18    13   ar
    35     1    29    1
    36     3    30    1
    37     7    31    1
    38    14    32    1
    39    15    33    1
    40    17    34    1
    41    21    35    1
    42    23    36    1
