@<TRIPOS>MOLECULE
*****
 34 39 0 0 0
SMALL
GASTEIGER

@<TRIPOS>ATOM
      1 C          -2.5874   -2.8560   -0.5090 C.ar    1  UNL1       -0.0160
      2 S          -4.2811   -3.1517   -0.5744 S.2     1  UNL1       -0.1038
      3 C          -4.6565   -1.4940   -0.2665 C.ar    1  UNL1       -0.0160
      4 C          -3.5267   -0.7161   -0.1142 C.ar    1  UNL1       -0.0024
      5 C          -2.3763   -1.5302   -0.2596 C.ar    1  UNL1       -0.0020
      6 C          -1.0919   -0.9001   -0.1341 C.ar    1  UNL1       -0.0013
      7 C           0.1541   -1.5467   -0.2477 C.ar    1  UNL1       -0.0380
      8 C           1.2027   -0.6539   -0.0744 C.ar    1  UNL1        0.0292
      9 S           0.5923    0.9320    0.2188 S.2     1  UNL1       -0.0870
     10 C          -1.0687    0.4600    0.1205 C.ar    1  UNL1        0.0297
     11 C          -2.2656    1.2513    0.2614 C.ar    1  UNL1        0.0151
     12 C          -2.2114    2.6271    0.5192 C.ar    1  UNL1        0.0364
     13 N          -3.2977    3.4274    0.6624 N.ar    1  UNL1       -0.2626
     14 C          -4.5096    2.8448    0.5462 C.ar    1  UNL1        0.0282
     15 C          -4.7009    1.4975    0.2930 C.ar    1  UNL1       -0.0352
     16 C          -3.5613    0.6785    0.1465 C.ar    1  UNL1       -0.0057
     17 C           2.6311   -0.9451   -0.1203 C.ar    1  UNL1        0.0534
     18 S           3.1771   -2.5707   -0.4211 S.2     1  UNL1       -0.0918
     19 C           4.8296   -2.1529   -0.3332 C.ar    1  UNL1        0.0038
     20 C           4.9899   -0.8181   -0.0825 C.ar    1  UNL1        0.0968
     21 N           6.2189   -0.2425    0.0325 N.ar    1  UNL1       -0.2514
     22 C           6.1070    1.0891    0.2809 C.ar    1  UNL1        0.0464
     23 C           4.9001    1.7831    0.4036 C.ar    1  UNL1        0.0464
     24 N           3.6642    1.2289    0.2925 N.ar    1  UNL1       -0.2508
     25 C           3.7309   -0.1134    0.0418 C.ar    1  UNL1        0.1044
     26 H          -1.8844   -3.6634   -0.6559 H       1  UNL1        0.0700
     27 H          -5.6969   -1.2061   -0.2189 H       1  UNL1        0.0700
     28 H           0.2905   -2.6020   -0.4443 H       1  UNL1        0.0635
     29 H          -1.2661    3.1535    0.6234 H       1  UNL1        0.0836
     30 H          -5.3560    3.5156    0.6667 H       1  UNL1        0.0830
     31 H          -5.7068    1.1043    0.2134 H       1  UNL1        0.0639
     32 H           5.6017   -2.8966   -0.4677 H       1  UNL1        0.0715
     33 H           7.0517    1.6154    0.3850 H       1  UNL1        0.0845
     34 H           4.9033    2.8511    0.6033 H       1  UNL1        0.0845
@<TRIPOS>BOND
     1     1     2   ar
     2     2     3   ar
     3     3     4   ar
     4     4     5   ar
     5     5     6   ar
     6     6     7   ar
     7     7     8   ar
     8     8     9   ar
     9     9    10   ar
    10    10    11   ar
    11    11    12   ar
    12    12    13   ar
    13    13    14   ar
    14    14    15   ar
    15    15    16   ar
    16     8    17    1
    17    17    18   ar
    18    18    19   ar
    19    19    20   ar
    20    20    21   ar
    21    21    22   ar
    22    22    23   ar
    23    23    24   ar
    24    24    25   ar
    25     5     1   ar
    26    10     6   ar
    27    16    11   ar
    28    25    17   ar
    29    16     4   ar
    30    25    20   ar
    31     1    26    1
    32     3    27    1
    33     7    28    1
    34    12    29    1
    35    14    30    1
    36    15    31    1
    37    19    32    1
    38    22    33    1
    39    23    34    1
