@<TRIPOS>MOLECULE
*****
 33 38 0 0 0
SMALL
GASTEIGER

@<TRIPOS>ATOM
      1 C           1.5793   -3.0504   -0.6827 C.ar    1  UNL1       -0.0160
      2 S           0.2127   -3.9438   -1.1833 S.2     1  UNL1       -0.1038
      3 C          -0.8077   -2.5851   -0.9803 C.ar    1  UNL1       -0.0160
      4 C          -0.1601   -1.4909   -0.4458 C.ar    1  UNL1       -0.0019
      5 C           1.2673   -1.7444   -0.3644 C.ar    1  UNL1       -0.0025
      6 C           2.2501   -0.7846   -0.0139 C.ar    1  UNL1       -0.0068
      7 C           3.6542   -1.0843    0.0911 C.ar    1  UNL1       -0.0513
      8 C           4.6235   -0.1318    0.4034 C.ar    1  UNL1       -0.0329
      9 C           4.1420    1.1711    0.6150 C.ar    1  UNL1        0.1005
     10 N           4.9221    2.2175    0.9258 N.ar    1  UNL1       -0.1908
     11 S           3.9212    3.5218    1.0882 S.2     1  UNL1        0.1165
     12 N           2.4616    2.8183    0.7707 N.ar    1  UNL1       -0.1901
     13 C           2.6666    1.5135    0.5107 C.ar    1  UNL1        0.1082
     14 C           1.6511    0.5184    0.1833 C.ar    1  UNL1        0.0201
     15 C           0.1843    0.7792    0.0756 C.ar    1  UNL1        0.0113
     16 C          -0.3694    2.0602    0.1810 C.ar    1  UNL1        0.0366
     17 N          -1.6812    2.3990    0.1235 N.ar    1  UNL1       -0.2543
     18 C          -2.5839    1.4289    0.0239 C.ar    1  UNL1        0.0716
     19 C          -3.9187    1.8132    0.0486 C.ar    1  UNL1       -0.0357
     20 C          -4.9553    0.8849    0.0196 C.ar    1  UNL1       -0.0597
     21 C          -4.6476   -0.4622   -0.0095 C.ar    1  UNL1       -0.0611
     22 C          -3.3086   -0.8600   -0.0455 C.ar    1  UNL1       -0.0520
     23 C          -2.2320    0.0709   -0.0796 C.ar    1  UNL1        0.0087
     24 C          -0.8033   -0.2388   -0.1538 C.ar    1  UNL1        0.0016
     25 H           2.5360   -3.5513   -0.6910 H       1  UNL1        0.0700
     26 H          -1.8278   -2.7002   -1.3062 H       1  UNL1        0.0700
     27 H           4.0116   -2.0989   -0.0765 H       1  UNL1        0.0624
     28 H           5.6766   -0.3733    0.4790 H       1  UNL1        0.0640
     29 H           0.2455    2.9448    0.3049 H       1  UNL1        0.0836
     30 H          -4.1566    2.8733    0.1100 H       1  UNL1        0.0639
     31 H          -5.9887    1.2178    0.0499 H       1  UNL1        0.0618
     32 H          -5.4394   -1.2066    0.0128 H       1  UNL1        0.0618
     33 H          -3.1252   -1.9262    0.0156 H       1  UNL1        0.0624
@<TRIPOS>BOND
     1     1     2   ar
     2     2     3   ar
     3     3     4   ar
     4     4     5   ar
     5     5     6   ar
     6     6     7   ar
     7     7     8   ar
     8     8     9   ar
     9     9    10   ar
    10    10    11   ar
    11    11    12   ar
    12    12    13   ar
    13    13    14   ar
    14    14    15   ar
    15    15    16   ar
    16    16    17   ar
    17    17    18   ar
    18    18    19   ar
    19    19    20   ar
    20    20    21   ar
    21    21    22   ar
    22    22    23   ar
    23    23    24   ar
    24     5     1   ar
    25    14     6   ar
    26    24    15   ar
    27    24     4   ar
    28    13     9   ar
    29    23    18   ar
    30     1    25    1
    31     3    26    1
    32     7    27    1
    33     8    28    1
    34    16    29    1
    35    19    30    1
    36    20    31    1
    37    21    32    1
    38    22    33    1
