@<TRIPOS>MOLECULE
*****
 41 46 0 0 0
SMALL
GASTEIGER

@<TRIPOS>ATOM
      1 C          -5.0949    2.3178    0.4264 C.ar    1  UNL1       -0.0160
      2 S          -4.4749    3.9061    0.6020 S.2     1  UNL1       -0.1038
      3 C          -2.8564    3.3441    0.5439 C.ar    1  UNL1       -0.0160
      4 C          -2.7849    1.9758    0.3940 C.ar    1  UNL1       -0.0026
      5 C          -4.0928    1.3772    0.3254 C.ar    1  UNL1       -0.0026
      6 C          -4.3242   -0.0147    0.1723 C.ar    1  UNL1       -0.0091
      7 C          -5.6080   -0.6191    0.1031 C.ar    1  UNL1       -0.0534
      8 C          -5.7307   -1.9933   -0.0479 C.ar    1  UNL1       -0.0611
      9 C          -4.5870   -2.7707   -0.1306 C.ar    1  UNL1       -0.0611
     10 C          -3.3173   -2.1769   -0.0627 C.ar    1  UNL1       -0.0534
     11 C          -3.1125   -0.7818    0.0908 C.ar    1  UNL1       -0.0095
     12 C          -1.7670   -0.1679    0.1611 C.ar    1  UNL1       -0.0076
     13 C          -0.5788   -0.9386    0.0792 C.ar    1  UNL1       -0.0295
     14 C           0.6882   -0.3324    0.1485 C.ar    1  UNL1        0.0475
     15 N           1.9443   -0.8923    0.0899 N.ar    1  UNL1       -0.3541
     16 C           2.9329    0.0655    0.1971 C.ar    1  UNL1        0.0475
     17 C           2.2613    1.2732    0.3281 C.ar    1  UNL1       -0.0287
     18 C           0.8616    1.0313    0.2985 C.ar    1  UNL1        0.0009
     19 C          -0.2768    1.8437    0.3851 C.ar    1  UNL1       -0.0442
     20 C          -1.5686    1.2465    0.3167 C.ar    1  UNL1       -0.0084
     21 C           4.3753   -0.2348    0.1674 C.ar    1  UNL1       -0.0017
     22 C           5.3174    0.7999    0.2830 C.ar    1  UNL1       -0.0526
     23 C           6.6913    0.5379    0.2572 C.ar    1  UNL1       -0.0611
     24 C           7.1497   -0.7673    0.1151 C.ar    1  UNL1       -0.0617
     25 C           6.2346   -1.8087   -0.0011 C.ar    1  UNL1       -0.0611
     26 C           4.8601   -1.5448    0.0248 C.ar    1  UNL1       -0.0526
     27 H          -6.1664    2.1833    0.4092 H       1  UNL1        0.0700
     28 H          -2.0591    4.0682    0.6251 H       1  UNL1        0.0700
     29 H          -6.5138   -0.0241    0.1664 H       1  UNL1        0.0624
     30 H          -6.7131   -2.4540   -0.1006 H       1  UNL1        0.0618
     31 H          -4.6714   -3.8484   -0.2490 H       1  UNL1        0.0618
     32 H          -2.4750   -2.8587   -0.1356 H       1  UNL1        0.0624
     33 H          -0.6148   -2.0152   -0.0389 H       1  UNL1        0.0644
     34 H           2.1069   -1.8813   -0.0182 H       1  UNL1        0.1659
     35 H           2.7232    2.2453    0.4358 H       1  UNL1        0.0645
     36 H          -0.1490    2.9134    0.5027 H       1  UNL1        0.0630
     37 H           4.9980    1.8324    0.3955 H       1  UNL1        0.0624
     38 H           7.3998    1.3571    0.3487 H       1  UNL1        0.0618
     39 H           8.2167   -0.9721    0.0950 H       1  UNL1        0.0618
     40 H           6.5883   -2.8306   -0.1124 H       1  UNL1        0.0618
     41 H           4.1879   -2.3912   -0.0696 H       1  UNL1        0.0624
@<TRIPOS>BOND
     1     1     2   ar
     2     2     3   ar
     3     3     4   ar
     4     4     5   ar
     5     5     6   ar
     6     6     7   ar
     7     7     8   ar
     8     8     9   ar
     9     9    10   ar
    10    10    11   ar
    11    11    12   ar
    12    12    13   ar
    13    13    14   ar
    14    14    15   ar
    15    15    16   ar
    16    16    17   ar
    17    17    18   ar
    18    18    19   ar
    19    19    20   ar
    20    16    21    1
    21    21    22   ar
    22    22    23   ar
    23    23    24   ar
    24    24    25   ar
    25    25    26   ar
    26     5     1   ar
    27    11     6   ar
    28    20    12   ar
    29    26    21   ar
    30    20     4   ar
    31    18    14   ar
    32     1    27    1
    33     3    28    1
    34     7    29    1
    35     8    30    1
    36     9    31    1
    37    10    32    1
    38    13    33    1
    39    15    34    1
    40    17    35    1
    41    19    36    1
    42    22    37    1
    43    23    38    1
    44    24    39    1
    45    25    40    1
    46    26    41    1
