@<TRIPOS>MOLECULE
*****
 38 43 0 0 0
SMALL
GASTEIGER

@<TRIPOS>ATOM
      1 C           6.7813    0.1303    1.0734 C.ar    1  UNL1       -0.0166
      2 S           6.1797    0.9157    2.4929 S.2     1  UNL1       -0.1039
      3 C           4.5372    0.7586    1.9843 C.ar    1  UNL1       -0.0159
      4 C           4.5108    0.1267    0.7774 C.ar    1  UNL1       -0.0006
      5 C           5.7638   -0.2462    0.2267 C.ar    1  UNL1       -0.0101
      6 C           6.0042   -0.9003   -0.9889 C.ar    1  UNL1       -0.0515
      7 C           4.8397   -1.2125   -1.7322 C.ar    1  UNL1       -0.0371
      8 C           3.5656   -0.8638   -1.2300 C.ar    1  UNL1        0.0486
      9 N           2.2936   -1.0388   -1.7255 N.ar    1  UNL1       -0.3532
     10 C           1.3767   -0.5067   -0.8281 C.ar    1  UNL1        0.0625
     11 C          -0.0427   -0.3741   -0.7564 C.ar    1  UNL1        0.0132
     12 C          -1.0623   -0.7724   -1.6474 C.ar    1  UNL1       -0.0510
     13 C          -2.4028   -0.5182   -1.3321 C.ar    1  UNL1       -0.0533
     14 C          -2.7649    0.1260   -0.1446 C.ar    1  UNL1       -0.0168
     15 C          -1.7485    0.5224    0.7430 C.ar    1  UNL1       -0.0396
     16 C          -0.3946    0.2706    0.4315 C.ar    1  UNL1        0.0225
     17 S           0.9708    0.6950    1.4102 S.2     1  UNL1       -0.0860
     18 C           2.0465    0.0143    0.2499 C.ar    1  UNL1        0.0463
     19 C           3.3957   -0.2202   -0.0254 C.ar    1  UNL1        0.0222
     20 C          -4.1797    0.3840    0.1728 C.ar    1  UNL1       -0.0178
     21 C          -4.7426   -0.0601    1.3811 C.ar    1  UNL1       -0.0540
     22 C          -6.0851    0.1836    1.6832 C.ar    1  UNL1       -0.0612
     23 C          -6.8879    0.8774    0.7814 C.ar    1  UNL1       -0.0617
     24 C          -6.3497    1.3274   -0.4215 C.ar    1  UNL1       -0.0612
     25 C          -5.0073    1.0820   -0.7227 C.ar    1  UNL1       -0.0540
     26 H           7.8475   -0.0034    0.9544 H       1  UNL1        0.0699
     27 H           3.7345    1.1359    2.6003 H       1  UNL1        0.0700
     28 H           6.9926   -1.1569   -1.3518 H       1  UNL1        0.0624
     29 H           4.9344   -1.7209   -2.6885 H       1  UNL1        0.0638
     30 H           2.0286   -1.4785   -2.5970 H       1  UNL1        0.1659
     31 H          -0.8168   -1.2785   -2.5768 H       1  UNL1        0.0625
     32 H          -3.1727   -0.8452   -2.0295 H       1  UNL1        0.0624
     33 H          -1.9993    1.0360    1.6687 H       1  UNL1        0.0635
     34 H          -4.1358   -0.6128    2.0958 H       1  UNL1        0.0624
     35 H          -6.5022   -0.1707    2.6223 H       1  UNL1        0.0618
     36 H          -7.9317    1.0682    1.0165 H       1  UNL1        0.0618
     37 H          -6.9724    1.8729   -1.1257 H       1  UNL1        0.0618
     38 H          -4.6041    1.4531   -1.6628 H       1  UNL1        0.0624
@<TRIPOS>BOND
     1     1     2   ar
     2     2     3   ar
     3     3     4   ar
     4     4     5   ar
     5     5     6   ar
     6     6     7   ar
     7     7     8   ar
     8     8     9   ar
     9     9    10   ar
    10    10    11   ar
    11    11    12   ar
    12    12    13   ar
    13    13    14   ar
    14    14    15   ar
    15    15    16   ar
    16    16    17   ar
    17    17    18   ar
    18    18    19   ar
    19    14    20    1
    20    20    21   ar
    21    21    22   ar
    22    22    23   ar
    23    23    24   ar
    24    24    25   ar
    25     5     1   ar
    26    19     8   ar
    27    25    20   ar
    28    19     4   ar
    29    18    10   ar
    30    16    11   ar
    31     1    26    1
    32     3    27    1
    33     6    28    1
    34     7    29    1
    35     9    30    1
    36    12    31    1
    37    13    32    1
    38    15    33    1
    39    21    34    1
    40    22    35    1
    41    23    36    1
    42    24    37    1
    43    25    38    1
