@<TRIPOS>MOLECULE
*****
 46 53 0 0 0
SMALL
GASTEIGER

@<TRIPOS>ATOM
      1 C          -5.5879    3.5379    0.7369 C.ar    1  UNL1       -0.0166
      2 S          -4.3007    4.6539    0.8388 S.2     1  UNL1       -0.1039
      3 C          -3.1300    3.4121    0.6136 C.ar    1  UNL1       -0.0160
      4 C          -3.6778    2.1563    0.4582 C.ar    1  UNL1       -0.0021
      5 C          -5.1204    2.2621    0.5368 C.ar    1  UNL1       -0.0102
      6 C          -6.0069    1.2082    0.4279 C.ar    1  UNL1       -0.0529
      7 C          -5.3285   -0.0093    0.2282 C.ar    1  UNL1       -0.0528
      8 C          -3.8896   -0.2106    0.1366 C.ar    1  UNL1       -0.0085
      9 C          -3.3355   -1.5095   -0.0674 C.ar    1  UNL1       -0.0095
     10 C          -4.1228   -2.6909   -0.1935 C.ar    1  UNL1       -0.0534
     11 C          -3.5755   -3.9603   -0.3918 C.ar    1  UNL1       -0.0611
     12 C          -2.2069   -4.1043   -0.4727 C.ar    1  UNL1       -0.0611
     13 C          -1.3964   -2.9787   -0.3557 C.ar    1  UNL1       -0.0533
     14 C          -1.9263   -1.6761   -0.1545 C.ar    1  UNL1       -0.0070
     15 C          -1.0251   -0.5552   -0.0435 C.ar    1  UNL1        0.0235
     16 C           0.4399   -0.4937   -0.1064 C.ar    1  UNL1        0.0863
     17 N           1.2849   -1.5505   -0.2953 N.ar    1  UNL1       -0.2532
     18 C           2.6059   -1.2770   -0.3163 C.ar    1  UNL1        0.0361
     19 C           3.1922   -0.0256   -0.1753 C.ar    1  UNL1        0.0034
     20 C           2.3181    1.0458    0.0125 C.ar    1  UNL1       -0.0367
     21 C           0.9359    0.7908    0.0466 C.ar    1  UNL1        0.0393
     22 S          -0.3191    1.9007    0.2601 S.2     1  UNL1       -0.0860
     23 C          -1.5816    0.7216    0.1591 C.ar    1  UNL1        0.0309
     24 C          -2.9922    0.9161    0.2529 C.ar    1  UNL1        0.0053
     25 C           4.6439    0.1541   -0.2380 C.ar    1  UNL1        0.0118
     26 C           5.4376   -0.3492   -1.3008 C.ar    1  UNL1       -0.0518
     27 C           6.8422   -0.1927   -1.3846 C.ar    1  UNL1       -0.0590
     28 C           7.5954    0.4817   -0.4121 C.ar    1  UNL1       -0.0335
     29 C           6.8705    1.0102    0.6811 C.ar    1  UNL1        0.1005
     30 N           7.4024    1.6839    1.7122 N.ar    1  UNL1       -0.1908
     31 S           6.1434    2.0730    2.7197 S.2     1  UNL1        0.1165
     32 N           4.8675    1.4119    1.8931 N.ar    1  UNL1       -0.1902
     33 C           5.3689    0.8489    0.7786 C.ar    1  UNL1        0.1076
     34 H          -6.6098    3.8796    0.8299 H       1  UNL1        0.0699
     35 H          -2.1071    3.7429    0.6189 H       1  UNL1        0.0700
     36 H          -7.0851    1.2756    0.4851 H       1  UNL1        0.0624
     37 H          -5.9953   -0.8652    0.1385 H       1  UNL1        0.0624
     38 H          -5.2063   -2.6588   -0.1394 H       1  UNL1        0.0624
     39 H          -4.2246   -4.8272   -0.4803 H       1  UNL1        0.0618
     40 H          -1.7616   -5.0833   -0.6253 H       1  UNL1        0.0618
     41 H          -0.3271   -3.1502   -0.4254 H       1  UNL1        0.0624
     42 H           3.2258   -2.1618   -0.4537 H       1  UNL1        0.0836
     43 H           2.6882    2.0607    0.1320 H       1  UNL1        0.0636
     44 H           4.9449   -0.8801   -2.1183 H       1  UNL1        0.0624
     45 H           7.3621   -0.6131   -2.2465 H       1  UNL1        0.0618
     46 H           8.6703    0.5953   -0.4873 H       1  UNL1        0.0640
@<TRIPOS>BOND
     1     1     2   ar
     2     2     3   ar
     3     3     4   ar
     4     4     5   ar
     5     5     6   ar
     6     6     7   ar
     7     7     8   ar
     8     8     9   ar
     9     9    10   ar
    10    10    11   ar
    11    11    12   ar
    12    12    13   ar
    13    13    14   ar
    14    14    15   ar
    15    15    16   ar
    16    16    17   ar
    17    17    18   ar
    18    18    19   ar
    19    19    20   ar
    20    20    21   ar
    21    21    22   ar
    22    22    23   ar
    23    23    24   ar
    24    19    25    1
    25    25    26   ar
    26    26    27   ar
    27    27    28   ar
    28    28    29   ar
    29    29    30   ar
    30    30    31   ar
    31    31    32   ar
    32    32    33   ar
    33     5     1   ar
    34    24     8   ar
    35    33    25   ar
    36    24     4   ar
    37    33    29   ar
    38    14     9   ar
    39    23    15   ar
    40    21    16   ar
    41     1    34    1
    42     3    35    1
    43     6    36    1
    44     7    37    1
    45    10    38    1
    46    11    39    1
    47    12    40    1
    48    13    41    1
    49    18    42    1
    50    20    43    1
    51    26    44    1
    52    27    45    1
    53    28    46    1
