@<TRIPOS>MOLECULE
*****
 45 52 0 0 0
SMALL
GASTEIGER

@<TRIPOS>ATOM
      1 C          -6.7515    1.2754   -0.5742 C.ar    1  UNL1       -0.0166
      2 S          -5.9497    2.0998   -1.8441 S.2     1  UNL1       -0.1039
      3 C          -4.4072    1.5784   -1.2931 C.ar    1  UNL1       -0.0160
      4 C          -4.4897    0.6927   -0.2410 C.ar    1  UNL1       -0.0026
      5 C          -5.8539    0.6192    0.2324 C.ar    1  UNL1       -0.0103
      6 C          -6.2640   -0.0090    1.3977 C.ar    1  UNL1       -0.0529
      7 C          -5.1574   -0.4779    2.1271 C.ar    1  UNL1       -0.0534
      8 C          -3.7860   -0.4030    1.6944 C.ar    1  UNL1       -0.0167
      9 C          -2.8010   -0.8142    2.5847 C.ar    1  UNL1       -0.0534
     10 C          -1.4353   -0.7258    2.2777 C.ar    1  UNL1       -0.0528
     11 C          -0.9385   -0.3320    1.0187 C.ar    1  UNL1       -0.0075
     12 C           0.5171   -0.2699    0.7575 C.ar    1  UNL1        0.0086
     13 C           1.5059   -0.4229    1.7426 C.ar    1  UNL1        0.0366
     14 N           2.8567   -0.3694    1.5676 N.ar    1  UNL1       -0.2542
     15 C           3.3408   -0.1576    0.3241 C.ar    1  UNL1        0.0752
     16 C           2.4753    0.0244   -0.7429 C.ar    1  UNL1       -0.0272
     17 C           1.0734   -0.0359   -0.5280 C.ar    1  UNL1       -0.0056
     18 C           0.0746    0.0693   -1.5252 C.ar    1  UNL1       -0.0024
     19 C           0.3592    0.1662   -2.8703 C.ar    1  UNL1       -0.0160
     20 S          -1.0573    0.0973   -3.8283 S.2     1  UNL1       -0.1038
     21 C          -2.0494   -0.0704   -2.4418 C.ar    1  UNL1       -0.0160
     22 C          -1.3461    0.0561   -1.2630 C.ar    1  UNL1       -0.0020
     23 C          -1.9449   -0.0307    0.0349 C.ar    1  UNL1       -0.0007
     24 C          -3.3595    0.0909    0.4191 C.ar    1  UNL1       -0.0013
     25 C           4.7993   -0.1112    0.2321 C.ar    1  UNL1        0.0466
     26 C           5.6274    0.2546    1.3094 C.ar    1  UNL1        0.0389
     27 N           7.0012    0.3392    1.3528 N.ar    1  UNL1       -0.2603
     28 C           7.7453    0.0313    0.2563 C.ar    1  UNL1        0.0557
     29 C           7.0678   -0.3729   -0.9088 C.ar    1  UNL1        0.1185
     30 N           7.6357   -0.7197   -2.0751 N.ar    1  UNL1       -0.1892
     31 S           6.3976   -1.1261   -3.0978 S.2     1  UNL1        0.1165
     32 N           5.0894   -0.8638   -2.1157 N.ar    1  UNL1       -0.1900
     33 C           5.5566   -0.4473   -0.9224 C.ar    1  UNL1        0.1119
     34 H          -7.8250    1.3567   -0.4711 H       1  UNL1        0.0699
     35 H          -3.5340    1.9759   -1.7884 H       1  UNL1        0.0700
     36 H          -7.2799   -0.0687    1.7641 H       1  UNL1        0.0624
     37 H          -5.3704   -0.9150    3.1054 H       1  UNL1        0.0624
     38 H          -3.0736   -1.1778    3.5753 H       1  UNL1        0.0624
     39 H          -0.7609   -1.0335    3.0739 H       1  UNL1        0.0624
     40 H           1.2467   -0.5870    2.7847 H       1  UNL1        0.0836
     41 H           2.8635    0.2213   -1.7348 H       1  UNL1        0.0645
     42 H           1.3161    0.2243   -3.3691 H       1  UNL1        0.0700
     43 H          -3.1011   -0.2618   -2.5951 H       1  UNL1        0.0700
     44 H           5.1651    0.5225    2.2625 H       1  UNL1        0.0837
     45 H           8.8214    0.1077    0.3350 H       1  UNL1        0.0852
@<TRIPOS>BOND
     1     1     2   ar
     2     2     3   ar
     3     3     4   ar
     4     4     5   ar
     5     5     6   ar
     6     6     7   ar
     7     7     8   ar
     8     8     9   ar
     9     9    10   ar
    10    10    11   ar
    11    11    12   ar
    12    12    13   ar
    13    13    14   ar
    14    14    15   ar
    15    15    16   ar
    16    16    17   ar
    17    17    18   ar
    18    18    19   ar
    19    19    20   ar
    20    20    21   ar
    21    21    22   ar
    22    22    23   ar
    23    23    24   ar
    24    15    25    1
    25    25    26   ar
    26    26    27   ar
    27    27    28   ar
    28    28    29   ar
    29    29    30   ar
    30    30    31   ar
    31    31    32   ar
    32    32    33   ar
    33     5     1   ar
    34    24     8   ar
    35    33    25   ar
    36    24     4   ar
    37    33    29   ar
    38    23    11   ar
    39    17    12   ar
    40    22    18   ar
    41     1    34    1
    42     3    35    1
    43     6    36    1
    44     7    37    1
    45     9    38    1
    46    10    39    1
    47    13    40    1
    48    16    41    1
    49    19    42    1
    50    21    43    1
    51    26    44    1
    52    28    45    1
