@<TRIPOS>MOLECULE
*****
 48 55 0 0 0
SMALL
GASTEIGER

@<TRIPOS>ATOM
      1 C          -7.1785   -0.9717   -1.9412 C.ar    1  UNL1       -0.0166
      2 S          -6.4262   -0.3028   -3.3274 S.2     1  UNL1       -0.1039
      3 C          -4.9228   -0.1375   -2.5098 C.ar    1  UNL1       -0.0160
      4 C          -5.0058   -0.4623   -1.1743 C.ar    1  UNL1       -0.0025
      5 C          -6.2969   -1.0510   -0.8909 C.ar    1  UNL1       -0.0103
      6 C          -6.6506   -1.6768    0.2953 C.ar    1  UNL1       -0.0529
      7 C          -5.5496   -1.7617    1.1651 C.ar    1  UNL1       -0.0520
      8 C          -4.2482   -1.2001    0.9062 C.ar    1  UNL1        0.0015
      9 C          -3.2219   -1.4459    1.8097 C.ar    1  UNL1        0.0360
     10 N          -1.9442   -1.0232    1.6898 N.ar    1  UNL1       -0.2532
     11 C          -1.6395   -0.1998    0.6579 C.ar    1  UNL1        0.0864
     12 C          -0.2657    0.2101    0.6450 C.ar    1  UNL1        0.0464
     13 S           1.0440   -0.2763    1.6813 S.2     1  UNL1       -0.0861
     14 C           2.1837    0.7156    0.8683 C.ar    1  UNL1        0.0211
     15 C           1.6101    1.4344   -0.1611 C.ar    1  UNL1       -0.0385
     16 C           0.2411    1.1249   -0.2600 C.ar    1  UNL1        0.0001
     17 C          -0.6929    1.7146   -1.1658 C.ar    1  UNL1       -0.0019
     18 C          -0.3920    2.7182   -2.0418 C.ar    1  UNL1       -0.0160
     19 S          -1.8401    3.2423   -2.8002 S.2     1  UNL1       -0.1038
     20 C          -2.7925    2.1144   -1.9050 C.ar    1  UNL1       -0.0159
     21 C          -2.0375    1.2578   -1.1291 C.ar    1  UNL1       -0.0005
     22 C          -2.5935    0.2238   -0.3062 C.ar    1  UNL1        0.0180
     23 C          -3.9086   -0.4128   -0.2446 C.ar    1  UNL1        0.0016
     24 C           3.5802    0.7260    1.3169 C.ar    1  UNL1       -0.0036
     25 C           3.9043    1.5095    2.4372 C.ar    1  UNL1       -0.0529
     26 C           5.2152    1.5830    2.8951 C.ar    1  UNL1       -0.0606
     27 C           6.2186    0.8775    2.2357 C.ar    1  UNL1       -0.0540
     28 C           5.9283    0.0866    1.1133 C.ar    1  UNL1       -0.0173
     29 C           6.9555   -0.6178    0.4631 C.ar    1  UNL1       -0.0540
     30 C           6.6891   -1.4129   -0.6505 C.ar    1  UNL1       -0.0612
     31 C           5.3900   -1.5165   -1.1287 C.ar    1  UNL1       -0.0611
     32 C           4.3576   -0.8222   -0.4943 C.ar    1  UNL1       -0.0534
     33 C           4.5959   -0.0026    0.6358 C.ar    1  UNL1       -0.0097
     34 H          -8.2064   -1.3042   -1.9928 H       1  UNL1        0.0699
     35 H          -4.0689    0.1770   -3.0898 H       1  UNL1        0.0700
     36 H          -7.6113   -2.1229    0.5152 H       1  UNL1        0.0624
     37 H          -5.7028   -2.3115    2.0968 H       1  UNL1        0.0624
     38 H          -3.3914   -2.0525    2.6977 H       1  UNL1        0.0836
     39 H           2.1671    2.1286   -0.7774 H       1  UNL1        0.0635
     40 H           0.5491    3.2040   -2.2577 H       1  UNL1        0.0700
     41 H          -3.8649    2.1829   -2.0085 H       1  UNL1        0.0700
     42 H           3.1285    2.0680    2.9574 H       1  UNL1        0.0624
     43 H           5.4559    2.1896    3.7641 H       1  UNL1        0.0618
     44 H           7.2382    0.9484    2.6093 H       1  UNL1        0.0624
     45 H           7.9799   -0.5536    0.8244 H       1  UNL1        0.0624
     46 H           7.4956   -1.9527   -1.1395 H       1  UNL1        0.0618
     47 H           5.1737   -2.1397   -1.9925 H       1  UNL1        0.0618
     48 H           3.3510   -0.9358   -0.8914 H       1  UNL1        0.0624
@<TRIPOS>BOND
     1     1     2   ar
     2     2     3   ar
     3     3     4   ar
     4     4     5   ar
     5     5     6   ar
     6     6     7   ar
     7     7     8   ar
     8     8     9   ar
     9     9    10   ar
    10    10    11   ar
    11    11    12   ar
    12    12    13   ar
    13    13    14   ar
    14    14    15   ar
    15    15    16   ar
    16    16    17   ar
    17    17    18   ar
    18    18    19   ar
    19    19    20   ar
    20    20    21   ar
    21    21    22   ar
    22    22    23   ar
    23    14    24    1
    24    24    25   ar
    25    25    26   ar
    26    26    27   ar
    27    27    28   ar
    28    28    29   ar
    29    29    30   ar
    30    30    31   ar
    31    31    32   ar
    32    32    33   ar
    33     5     1   ar
    34    23     8   ar
    35    33    24   ar
    36    23     4   ar
    37    33    28   ar
    38    22    11   ar
    39    16    12   ar
    40    21    17   ar
    41     1    34    1
    42     3    35    1
    43     6    36    1
    44     7    37    1
    45     9    38    1
    46    15    39    1
    47    18    40    1
    48    20    41    1
    49    25    42    1
    50    26    43    1
    51    27    44    1
    52    29    45    1
    53    30    46    1
    54    31    47    1
    55    32    48    1
