@<TRIPOS>MOLECULE
*****
 40 46 0 0 0
SMALL
GASTEIGER

@<TRIPOS>ATOM
      1 C          -6.2822    0.5382    0.1087 C.ar    1  UNL1       -0.0166
      2 S          -5.7889    2.1339   -0.2750 S.2     1  UNL1       -0.1039
      3 C          -4.1249    1.7078   -0.1905 C.ar    1  UNL1       -0.0160
      4 C          -3.9333    0.3581    0.0014 C.ar    1  UNL1       -0.0011
      5 C          -5.1960   -0.2837    0.2828 C.ar    1  UNL1       -0.0102
      6 C          -5.3426   -1.5890    0.7219 C.ar    1  UNL1       -0.0515
      7 C          -4.0841   -2.1777    0.9583 C.ar    1  UNL1       -0.0351
      8 C          -2.8197   -1.5839    0.7148 C.ar    1  UNL1        0.0722
      9 N          -1.7727   -2.3124    1.1113 N.ar    1  UNL1       -0.2543
     10 C          -0.5262   -1.8115    0.9590 C.ar    1  UNL1        0.0380
     11 C          -0.2193   -0.6175    0.3108 C.ar    1  UNL1        0.0253
     12 C           1.1501   -0.2197    0.1934 C.ar    1  UNL1        0.0569
     13 N           2.3318   -0.7462    0.6777 N.ar    1  UNL1       -0.3512
     14 C           3.4235    0.0134    0.2864 C.ar    1  UNL1        0.0851
     15 C           2.9415    1.0557   -0.4922 C.ar    1  UNL1       -0.0250
     16 C           1.5590    0.8850   -0.5238 C.ar    1  UNL1        0.0092
     17 C           0.5609    1.6132   -1.2194 C.ar    1  UNL1       -0.0011
     18 C           0.8170    2.6508   -2.0669 C.ar    1  UNL1       -0.0160
     19 S          -0.6544    3.1107   -2.8232 S.2     1  UNL1       -0.1038
     20 C          -1.5437    1.8834   -1.9917 C.ar    1  UNL1       -0.0160
     21 C          -0.7913    1.2018   -1.0559 C.ar    1  UNL1       -0.0018
     22 C          -1.2992    0.1416   -0.2250 C.ar    1  UNL1        0.0035
     23 C          -2.6539   -0.2916    0.1101 C.ar    1  UNL1        0.0170
     24 C           4.7767   -0.3406    0.6815 C.ar    1  UNL1        0.1791
     25 N           5.7586    0.4479    0.2496 N.ar    1  UNL1       -0.2145
     26 C           6.9652    0.0615    0.6507 C.ar    1  UNL1        0.1201
     27 N           7.2370   -0.9990    1.4102 N.ar    1  UNL1       -0.2241
     28 C           6.1636   -1.6997    1.7714 C.ar    1  UNL1        0.1201
     29 N           4.9026   -1.4292    1.4438 N.ar    1  UNL1       -0.2145
     30 H          -7.3332    0.3104    0.2240 H       1  UNL1        0.0699
     31 H          -3.3980    2.5013   -0.2735 H       1  UNL1        0.0700
     32 H          -6.2760   -2.0883    0.9432 H       1  UNL1        0.0624
     33 H          -4.0797   -3.1828    1.3865 H       1  UNL1        0.0639
     34 H           0.2460   -2.4556    1.3699 H       1  UNL1        0.0836
     35 H           2.4207   -1.5704    1.2566 H       1  UNL1        0.1660
     36 H           3.5462    1.8176   -0.9664 H       1  UNL1        0.0646
     37 H           1.7507    3.1319   -2.3217 H       1  UNL1        0.0700
     38 H          -2.5747    1.7426   -2.2779 H       1  UNL1        0.0700
     39 H           7.8074    0.6654    0.3301 H       1  UNL1        0.1048
     40 H           6.3354   -2.5734    2.3914 H       1  UNL1        0.1048
@<TRIPOS>BOND
     1     1     2   ar
     2     2     3   ar
     3     3     4   ar
     4     4     5   ar
     5     5     6   ar
     6     6     7   ar
     7     7     8   ar
     8     8     9   ar
     9     9    10   ar
    10    10    11   ar
    11    11    12   ar
    12    12    13   ar
    13    13    14   ar
    14    14    15   ar
    15    15    16   ar
    16    16    17   ar
    17    17    18   ar
    18    18    19   ar
    19    19    20   ar
    20    20    21   ar
    21    21    22   ar
    22    22    23   ar
    23    14    24    1
    24    24    25   ar
    25    25    26   ar
    26    26    27   ar
    27    27    28   ar
    28    28    29   ar
    29     5     1   ar
    30    23     8   ar
    31    29    24   ar
    32    23     4   ar
    33    22    11   ar
    34    16    12   ar
    35    21    17   ar
    36     1    30    1
    37     3    31    1
    38     6    32    1
    39     7    33    1
    40    10    34    1
    41    13    35    1
    42    15    36    1
    43    18    37    1
    44    20    38    1
    45    26    39    1
    46    28    40    1
