@<TRIPOS>MOLECULE
*****
 45 51 0 0 0
SMALL
GASTEIGER

@<TRIPOS>ATOM
      1 SI         -6.4967    0.6965   -2.2957 Si      1  UNL1        0.0000
      2 C          -6.7908    0.3532   -0.4863 C.2     1  UNL1        0.0000
      3 C          -5.6265    0.1722    0.1660 C.ar    1  UNL1        0.0000
      4 C          -5.5458   -0.2108    1.5694 C.ar    1  UNL1        0.0000
      5 C          -4.3500   -0.4646    2.1319 C.ar    1  UNL1        0.0000
      6 C          -3.1786   -0.2954    1.3327 C.ar    1  UNL1        0.0000
      7 O          -1.9015   -0.5241    1.7794 O.2     1  UNL1        0.0000
      8 C          -1.0349   -0.1889    0.7745 C.ar    1  UNL1        0.0000
      9 C          -1.7817    0.2622   -0.3025 C.ar    1  UNL1        0.0000
     10 C          -1.0176    0.7496   -1.4017 C.ar    1  UNL1        0.0000
     11 C          -1.3564    1.3748   -2.5604 C.ar    1  UNL1        0.0000
     12 O          -0.2032    1.6446   -3.2537 O.2     1  UNL1        0.0000
     13 C           0.8477    1.2061   -2.4924 C.ar    1  UNL1        0.0000
     14 C           0.3897    0.6604   -1.3155 C.ar    1  UNL1        0.0000
     15 C           1.1822    0.1571   -0.2590 C.ar    1  UNL1        0.0000
     16 C           2.5929    0.0713   -0.1906 C.ar    1  UNL1        0.0000
     17 C           3.2243   -0.4357    0.9582 C.ar    1  UNL1        0.0000
     18 C           2.4207   -0.8511    2.0376 C.ar    1  UNL1        0.0000
     19 C           1.0234   -0.7724    1.9867 C.ar    1  UNL1        0.0000
     20 C           0.3897   -0.2715    0.8395 C.ar    1  UNL1        0.0000
     21 C           4.6917   -0.5273    1.0325 C.ar    1  UNL1        0.0000
     22 C           5.4235   -1.2219    0.0549 C.ar    1  UNL1        0.0000
     23 C           6.8166   -1.3088    0.1243 C.ar    1  UNL1        0.0000
     24 C           7.5016   -0.7008    1.1731 C.ar    1  UNL1        0.0000
     25 C           6.7953   -0.0071    2.1525 C.ar    1  UNL1        0.0000
     26 C           5.4021    0.0779    2.0824 C.ar    1  UNL1        0.0000
     27 C          -3.1408    0.1295   -0.0076 C.ar    1  UNL1        0.0000
     28 C          -4.3960    0.3226   -0.6740 C.ar    1  UNL1        0.0000
     29 C          -4.6576    0.5338   -1.9767 C.2     1  UNL1        0.0000
     30 H          -7.0127   -0.3834   -3.1700 H       1  UNL1        0.0000
     31 H          -6.8780    2.0755   -2.6828 H       1  UNL1        0.0000
     32 H          -7.7877    0.2710   -0.0831 H       1  UNL1        0.0000
     33 H          -6.4614   -0.3181    2.1410 H       1  UNL1        0.0000
     34 H          -4.2509   -0.7716    3.1660 H       1  UNL1        0.0000
     35 H          -2.2572    1.7222   -3.0372 H       1  UNL1        0.0000
     36 H           1.8246    1.3768   -2.9222 H       1  UNL1        0.0000
     37 H           3.1967    0.4130   -1.0276 H       1  UNL1        0.0000
     38 H           2.8863   -1.2563    2.9349 H       1  UNL1        0.0000
     39 H           0.4383   -1.1074    2.8404 H       1  UNL1        0.0000
     40 H           4.9069   -1.7144   -0.7667 H       1  UNL1        0.0000
     41 H           7.3644   -1.8542   -0.6398 H       1  UNL1        0.0000
     42 H           8.5850   -0.7678    1.2276 H       1  UNL1        0.0000
     43 H           7.3268    0.4709    2.9711 H       1  UNL1        0.0000
     44 H           4.8704    0.6338    2.8522 H       1  UNL1        0.0000
     45 H          -3.9749    0.5785   -2.8020 H       1  UNL1        0.0000
@<TRIPOS>BOND
     1     1     2    1
     2     2     3    2
     3     3     4   ar
     4     4     5   ar
     5     5     6   ar
     6     6     7   ar
     7     7     8   ar
     8     8     9   ar
     9     9    10   ar
    10    10    11   ar
    11    11    12   ar
    12    12    13   ar
    13    13    14   ar
    14    14    15   ar
    15    15    16   ar
    16    16    17   ar
    17    17    18   ar
    18    18    19   ar
    19    19    20   ar
    20    17    21    1
    21    21    22   ar
    22    22    23   ar
    23    23    24   ar
    24    24    25   ar
    25    25    26   ar
    26     9    27   ar
    27    27    28   ar
    28    28    29    2
    29    29     1    1
    30    28     3   ar
    31    27     6   ar
    32    20     8   ar
    33    26    21   ar
    34    14    10   ar
    35    20    15   ar
    36     1    30    1
    37     1    31    1
    38     2    32    1
    39     4    33    1
    40     5    34    1
    41    11    35    1
    42    13    36    1
    43    16    37    1
    44    18    38    1
    45    19    39    1
    46    22    40    1
    47    23    41    1
    48    24    42    1
    49    25    43    1
    50    26    44    1
    51    29    45    1
