@<TRIPOS>MOLECULE
*****
 43 50 0 0 0
SMALL
GASTEIGER

@<TRIPOS>ATOM
      1 C          -7.1052   -0.8599    0.4383 C.ar    1  UNL1       -0.0166
      2 S          -6.4764   -2.3583   -0.0959 S.2     1  UNL1       -0.1039
      3 C          -4.8584   -1.7805   -0.0061 C.ar    1  UNL1       -0.0160
      4 C          -4.7774   -0.4474    0.3254 C.ar    1  UNL1       -0.0011
      5 C          -6.0965    0.0436    0.6667 C.ar    1  UNL1       -0.0102
      6 C          -6.3702    1.2899    1.2008 C.ar    1  UNL1       -0.0515
      7 C          -5.1776    1.9929    1.4435 C.ar    1  UNL1       -0.0351
      8 C          -3.8671    1.5514    1.1343 C.ar    1  UNL1        0.0722
      9 N          -2.9101    2.3855    1.5219 N.ar    1  UNL1       -0.2543
     10 C          -1.6143    2.0659    1.2927 C.ar    1  UNL1        0.0366
     11 C          -1.1256    0.9573    0.5999 C.ar    1  UNL1        0.0107
     12 C           0.3087    0.7598    0.3983 C.ar    1  UNL1       -0.0065
     13 C           1.3160    1.5700    0.9768 C.ar    1  UNL1       -0.0527
     14 C           2.6895    1.3542    0.7641 C.ar    1  UNL1       -0.0519
     15 C           3.1614    0.3192   -0.0512 C.ar    1  UNL1        0.0032
     16 C           2.1910   -0.5047   -0.6287 C.ar    1  UNL1       -0.0426
     17 C           0.8029   -0.2912   -0.4104 C.ar    1  UNL1        0.0116
     18 C          -0.1709   -1.1246   -1.0343 C.ar    1  UNL1        0.1082
     19 N           0.0970   -2.1386   -1.8787 N.ar    1  UNL1       -0.1901
     20 S          -1.3500   -2.7316   -2.3984 S.2     1  UNL1        0.1165
     21 N          -2.3771   -1.7598   -1.5529 N.ar    1  UNL1       -0.1901
     22 C          -1.6466   -0.9280   -0.7908 C.ar    1  UNL1        0.1089
     23 C          -2.1525    0.0874    0.1081 C.ar    1  UNL1        0.0221
     24 C          -3.5587    0.3209    0.4717 C.ar    1  UNL1        0.0184
     25 C           4.6030    0.1237   -0.2448 C.ar    1  UNL1        0.0990
     26 N           5.4453    0.4791    0.7895 N.ar    1  UNL1       -0.2527
     27 C           6.8035    0.3297    0.7023 C.ar    1  UNL1        0.0304
     28 C           7.5271   -0.1622   -0.3758 C.ar    1  UNL1       -0.0153
     29 C           6.7210   -0.5237   -1.4699 C.ar    1  UNL1        0.1034
     30 N           7.1770   -1.0141   -2.6336 N.ar    1  UNL1       -0.1907
     31 S           5.8481   -1.2637   -3.5937 S.2     1  UNL1        0.1165
     32 N           4.6378   -0.7636   -2.5791 N.ar    1  UNL1       -0.1886
     33 C           5.2189   -0.3830   -1.4256 C.ar    1  UNL1        0.1257
     34 H          -8.1703   -0.7415    0.5842 H       1  UNL1        0.0699
     35 H          -4.0788   -2.4993   -0.1911 H       1  UNL1        0.0700
     36 H          -7.3456    1.6741    1.4658 H       1  UNL1        0.0624
     37 H          -5.2679    2.9702    1.9235 H       1  UNL1        0.0639
     38 H          -0.9505    2.8253    1.6970 H       1  UNL1        0.0836
     39 H           1.0682    2.3987    1.6359 H       1  UNL1        0.0624
     40 H           3.4000    2.0204    1.2549 H       1  UNL1        0.0624
     41 H           2.4940   -1.3421   -1.2569 H       1  UNL1        0.0631
     42 H           7.3336    0.6446    1.6014 H       1  UNL1        0.0830
     43 H           8.6035   -0.2530   -0.3791 H       1  UNL1        0.0655
@<TRIPOS>BOND
     1     1     2   ar
     2     2     3   ar
     3     3     4   ar
     4     4     5   ar
     5     5     6   ar
     6     6     7   ar
     7     7     8   ar
     8     8     9   ar
     9     9    10   ar
    10    10    11   ar
    11    11    12   ar
    12    12    13   ar
    13    13    14   ar
    14    14    15   ar
    15    15    16   ar
    16    16    17   ar
    17    17    18   ar
    18    18    19   ar
    19    19    20   ar
    20    20    21   ar
    21    21    22   ar
    22    22    23   ar
    23    23    24   ar
    24    15    25    1
    25    25    26   ar
    26    26    27   ar
    27    27    28   ar
    28    28    29   ar
    29    29    30   ar
    30    30    31   ar
    31    31    32   ar
    32    32    33   ar
    33     5     1   ar
    34    24     8   ar
    35    33    25   ar
    36    24     4   ar
    37    33    29   ar
    38    23    11   ar
    39    17    12   ar
    40    22    18   ar
    41     1    34    1
    42     3    35    1
    43     6    36    1
    44     7    37    1
    45    10    38    1
    46    13    39    1
    47    14    40    1
    48    16    41    1
    49    27    42    1
    50    28    43    1
