@<TRIPOS>MOLECULE
*****
 37 42 0 0 0
SMALL
GASTEIGER

@<TRIPOS>ATOM
      1 C           7.0610    0.4391   -0.3078 C.ar    1  UNL1       -0.0166
      2 S           6.7321    1.2750   -1.7856 S.2     1  UNL1       -0.1039
      3 C           5.0263    1.1025   -1.5955 C.ar    1  UNL1       -0.0160
      4 C           4.7778    0.4277   -0.4358 C.ar    1  UNL1       -0.0026
      5 C           5.9048    0.0353    0.3209 C.ar    1  UNL1       -0.0102
      6 C           5.9246   -0.6568    1.5282 C.ar    1  UNL1       -0.0524
      7 C           4.6372   -0.9778    2.0039 C.ar    1  UNL1       -0.0468
      8 C           3.4621   -0.6105    1.2878 C.ar    1  UNL1        0.0206
      9 S           1.8130   -0.9082    1.6999 S.2     1  UNL1       -0.0851
     10 C           1.2163   -0.1214    0.2903 C.ar    1  UNL1        0.0556
     11 C           2.2429    0.3687   -0.4973 C.ar    1  UNL1       -0.0356
     12 C           3.4875    0.0794    0.0875 C.ar    1  UNL1       -0.0019
     13 C          -0.1908   -0.0099    0.0049 C.ar    1  UNL1        0.1428
     14 C          -1.2865   -0.4636    0.7244 C.ar    1  UNL1       -0.0070
     15 C          -2.4629   -0.0972    0.0099 C.ar    1  UNL1        0.0285
     16 C          -2.0076    0.5673   -1.1187 C.ar    1  UNL1        0.1363
     17 C          -2.8317    1.1021   -2.1040 C.ar    1  UNL1       -0.0181
     18 C          -4.2105    0.9466   -1.9222 C.ar    1  UNL1       -0.0505
     19 C          -4.7378    0.2837   -0.8012 C.ar    1  UNL1       -0.0171
     20 C          -6.1217    0.1318   -0.6261 C.ar    1  UNL1       -0.0540
     21 C          -6.6340   -0.5297    0.4936 C.ar    1  UNL1       -0.0612
     22 C          -5.7733   -1.0510    1.4576 C.ar    1  UNL1       -0.0611
     23 C          -4.3933   -0.9147    1.3094 C.ar    1  UNL1       -0.0534
     24 C          -3.8654   -0.2495    0.1845 C.ar    1  UNL1       -0.0071
     25 O          -0.6505    0.6215   -1.1252 O.2     1  UNL1       -0.4543
     26 H           8.0872    0.2988    0.0031 H       1  UNL1        0.0699
     27 H           4.3454    1.5009   -2.3339 H       1  UNL1        0.0700
     28 H           6.8220   -0.9331    2.0678 H       1  UNL1        0.0624
     29 H           4.5402   -1.5202    2.9428 H       1  UNL1        0.0629
     30 H           2.0750    0.8965   -1.4277 H       1  UNL1        0.0636
     31 H          -1.2468   -0.9999    1.6617 H       1  UNL1        0.0662
     32 H          -2.4208    1.6124   -2.9666 H       1  UNL1        0.0655
     33 H          -4.8800    1.3551   -2.6775 H       1  UNL1        0.0625
     34 H          -6.8166    0.5289   -1.3631 H       1  UNL1        0.0624
     35 H          -7.7094   -0.6378    0.6122 H       1  UNL1        0.0618
     36 H          -6.1779   -1.5644    2.3262 H       1  UNL1        0.0618
     37 H          -3.7378   -1.3276    2.0713 H       1  UNL1        0.0624
@<TRIPOS>BOND
     1     1     2   ar
     2     2     3   ar
     3     3     4   ar
     4     4     5   ar
     5     5     6   ar
     6     6     7   ar
     7     7     8   ar
     8     8     9   ar
     9     9    10   ar
    10    10    11   ar
    11    11    12   ar
    12    10    13    1
    13    13    14   ar
    14    14    15   ar
    15    15    16   ar
    16    16    17   ar
    17    17    18   ar
    18    18    19   ar
    19    19    20   ar
    20    20    21   ar
    21    21    22   ar
    22    22    23   ar
    23    23    24   ar
    24    16    25   ar
    25     5     1   ar
    26    12     8   ar
    27    25    13   ar
    28    12     4   ar
    29    24    15   ar
    30    24    19   ar
    31     1    26    1
    32     3    27    1
    33     6    28    1
    34     7    29    1
    35    11    30    1
    36    14    31    1
    37    17    32    1
    38    18    33    1
    39    20    34    1
    40    21    35    1
    41    22    36    1
    42    23    37    1
