@<TRIPOS>MOLECULE
*****
 36 41 0 0 0
SMALL
GASTEIGER

@<TRIPOS>ATOM
      1 C           6.3176    1.3891   -0.1816 C.ar    1  UNL1       -0.0166
      2 S           5.5619    2.8942    0.2106 S.2     1  UNL1       -0.1039
      3 C           3.9805    2.2089    0.1385 C.ar    1  UNL1       -0.0160
      4 C           4.0864    0.8851   -0.1755 C.ar    1  UNL1       -0.0026
      5 C           5.3944    0.3845   -0.3644 C.ar    1  UNL1       -0.0102
      6 C           5.7735   -0.9148   -0.6878 C.ar    1  UNL1       -0.0524
      7 C           4.6787   -1.7908   -0.8311 C.ar    1  UNL1       -0.0468
      8 C           3.3371   -1.3468   -0.6536 C.ar    1  UNL1        0.0205
      9 S           1.8801   -2.2522   -0.7838 S.2     1  UNL1       -0.0882
     10 C           0.8624   -0.8995   -0.4127 C.ar    1  UNL1        0.0220
     11 C           1.6324    0.2360   -0.1909 C.ar    1  UNL1       -0.0385
     12 C           3.0033   -0.0450   -0.3321 C.ar    1  UNL1       -0.0020
     13 C          -0.6116   -1.0453   -0.3651 C.ar    1  UNL1        0.0074
     14 C          -1.2785   -2.2470   -0.6079 C.ar    1  UNL1        0.0365
     15 N          -2.6290   -2.4339   -0.5768 N.ar    1  UNL1       -0.2543
     16 C          -3.4170   -1.3918   -0.2906 C.ar    1  UNL1        0.0716
     17 C          -4.8214   -1.6051   -0.2626 C.ar    1  UNL1       -0.0351
     18 C          -5.8091   -0.6298    0.0190 C.ar    1  UNL1       -0.0515
     19 C          -5.2385    0.6113    0.2764 C.ar    1  UNL1       -0.0102
     20 C          -5.9903    1.7198    0.5761 C.ar    1  UNL1       -0.0166
     21 S          -4.9916    3.0930    0.8406 S.2     1  UNL1       -0.1039
     22 C          -3.5522    2.1943    0.5517 C.ar    1  UNL1       -0.0160
     23 C          -3.8241    0.8778    0.2603 C.ar    1  UNL1       -0.0017
     24 C          -2.8438   -0.1156   -0.0252 C.ar    1  UNL1        0.0092
     25 C          -1.4361    0.0423   -0.0663 C.ar    1  UNL1       -0.0423
     26 H           7.3957    1.3412   -0.2523 H       1  UNL1        0.0699
     27 H           3.1084    2.8175    0.3284 H       1  UNL1        0.0700
     28 H           6.7959   -1.2461   -0.8214 H       1  UNL1        0.0624
     29 H           4.8649   -2.8332   -1.0841 H       1  UNL1        0.0629
     30 H           1.2221    1.2051    0.0574 H       1  UNL1        0.0635
     31 H          -0.7419   -3.1607   -0.8504 H       1  UNL1        0.0836
     32 H          -5.1657   -2.6185   -0.4795 H       1  UNL1        0.0639
     33 H          -6.8672   -0.8545    0.0253 H       1  UNL1        0.0624
     34 H          -7.0650    1.8112    0.6568 H       1  UNL1        0.0699
     35 H          -2.5998    2.7002    0.6169 H       1  UNL1        0.0700
     36 H          -1.0124    1.0190    0.1377 H       1  UNL1        0.0631
@<TRIPOS>BOND
     1     1     2   ar
     2     2     3   ar
     3     3     4   ar
     4     4     5   ar
     5     5     6   ar
     6     6     7   ar
     7     7     8   ar
     8     8     9   ar
     9     9    10   ar
    10    10    11   ar
    11    11    12   ar
    12    10    13    1
    13    13    14   ar
    14    14    15   ar
    15    15    16   ar
    16    16    17   ar
    17    17    18   ar
    18    18    19   ar
    19    19    20   ar
    20    20    21   ar
    21    21    22   ar
    22    22    23   ar
    23    23    24   ar
    24    24    25   ar
    25     5     1   ar
    26    12     8   ar
    27    25    13   ar
    28    12     4   ar
    29    24    16   ar
    30    23    19   ar
    31     1    26    1
    32     3    27    1
    33     6    28    1
    34     7    29    1
    35    11    30    1
    36    14    31    1
    37    17    32    1
    38    18    33    1
    39    20    34    1
    40    22    35    1
    41    25    36    1
