@<TRIPOS>MOLECULE
*****
 40 47 0 0 0
SMALL
GASTEIGER

@<TRIPOS>ATOM
      1 C          -6.8297    1.7386    0.7817 C.ar    1  UNL1       -0.0166
      2 S          -5.9372    2.9881    1.5654 S.2     1  UNL1       -0.1039
      3 C          -4.4251    2.2411    1.2003 C.ar    1  UNL1       -0.0160
      4 C          -4.6398    1.0852    0.5065 C.ar    1  UNL1       -0.0016
      5 C          -6.0031    0.7732    0.2529 C.ar    1  UNL1       -0.0102
      6 C          -6.5219   -0.3289   -0.4249 C.ar    1  UNL1       -0.0524
      7 C          -5.5368   -1.2172   -0.9002 C.ar    1  UNL1       -0.0468
      8 C          -4.1522   -0.9750   -0.6868 C.ar    1  UNL1        0.0216
      9 S          -2.8153   -1.9364   -1.1876 S.2     1  UNL1       -0.0870
     10 C          -1.6601   -0.8204   -0.4688 C.ar    1  UNL1        0.0359
     11 C          -2.2963    0.2548    0.1351 C.ar    1  UNL1        0.0359
     12 S          -1.1451    1.3711    0.8550 S.2     1  UNL1       -0.0870
     13 C           0.1914    0.4101    0.3530 C.ar    1  UNL1        0.0222
     14 C           1.5727    0.6561    0.5682 C.ar    1  UNL1       -0.0375
     15 C           2.5851   -0.2231    0.1010 C.ar    1  UNL1        0.0118
     16 C           4.0023    0.0183    0.3289 C.ar    1  UNL1        0.0997
     17 N           4.7749   -0.9883    0.8614 N.ar    1  UNL1       -0.2527
     18 C           6.1084   -0.8116    1.1199 C.ar    1  UNL1        0.0304
     19 C           6.8625    0.3357    0.9047 C.ar    1  UNL1       -0.0153
     20 C           6.1183    1.3989    0.3621 C.ar    1  UNL1        0.1034
     21 N           6.6072    2.6125    0.0618 N.ar    1  UNL1       -0.1907
     22 S           5.3408    3.4945   -0.5475 S.2     1  UNL1        0.1165
     23 N           4.1153    2.3814   -0.4523 N.ar    1  UNL1       -0.1886
     24 C           4.6485    1.2568    0.0615 C.ar    1  UNL1        0.1257
     25 C           2.0641   -1.3407   -0.5860 C.ar    1  UNL1       -0.0010
     26 C           2.8571   -2.3200   -1.1522 C.ar    1  UNL1       -0.0160
     27 S           1.9435   -3.5523   -1.9328 S.2     1  UNL1       -0.1038
     28 C           0.4518   -2.7916   -1.5396 C.ar    1  UNL1       -0.0160
     29 C           0.6893   -1.6439   -0.8387 C.ar    1  UNL1       -0.0009
     30 C          -0.2600   -0.6972   -0.3245 C.ar    1  UNL1        0.0118
     31 C          -3.6949    0.1327   -0.0086 C.ar    1  UNL1        0.0117
     32 H          -7.9096    1.7930    0.7592 H       1  UNL1        0.0699
     33 H          -3.5155    2.7184    1.5282 H       1  UNL1        0.0700
     34 H          -7.5781   -0.5099   -0.5854 H       1  UNL1        0.0624
     35 H          -5.8460   -2.1088   -1.4431 H       1  UNL1        0.0629
     36 H           1.8593    1.5521    1.1189 H       1  UNL1        0.0636
     37 H           6.5892   -1.6951    1.5409 H       1  UNL1        0.0830
     38 H           7.9162    0.4070    1.1323 H       1  UNL1        0.0655
     39 H           3.9351   -2.4039   -1.1574 H       1  UNL1        0.0700
     40 H          -0.4662   -3.2551   -1.8624 H       1  UNL1        0.0700
@<TRIPOS>BOND
     1     1     2   ar
     2     2     3   ar
     3     3     4   ar
     4     4     5   ar
     5     5     6   ar
     6     6     7   ar
     7     7     8   ar
     8     8     9   ar
     9     9    10   ar
    10    10    11   ar
    11    11    12   ar
    12    12    13   ar
    13    13    14   ar
    14    14    15   ar
    15    15    16    1
    16    16    17   ar
    17    17    18   ar
    18    18    19   ar
    19    19    20   ar
    20    20    21   ar
    21    21    22   ar
    22    22    23   ar
    23    23    24   ar
    24    15    25   ar
    25    25    26   ar
    26    26    27   ar
    27    27    28   ar
    28    28    29   ar
    29    29    30   ar
    30    11    31   ar
    31     5     1   ar
    32    31     8   ar
    33    31     4   ar
    34    30    10   ar
    35    30    13   ar
    36    24    16   ar
    37    29    25   ar
    38    24    20   ar
    39     1    32    1
    40     3    33    1
    41     6    34    1
    42     7    35    1
    43    14    36    1
    44    18    37    1
    45    19    38    1
    46    26    39    1
    47    28    40    1
