@<TRIPOS>MOLECULE
*****
 30 33 0 0 0
SMALL
GASTEIGER

@<TRIPOS>ATOM
      1 C           4.0069   -0.5544   -0.5167 C.3     1  UNL1        0.0000
      2 B           2.5448   -0.0379   -0.3194 B       1  UNL1        0.0000
      3 N           2.1864    1.4465   -0.1811 N.ar    1  UNL1        0.0000
      4 C           0.8159    1.7647    0.0391 C.ar    1  UNL1        0.0000
      5 C          -0.1777    0.8192    0.1310 C.ar    1  UNL1        0.0000
      6 N           0.1375   -0.5407    0.0062 N.ar    1  UNL1        0.0000
      7 C          -0.7353   -1.5525    0.0765 C.ar    1  UNL1        0.0000
      8 B          -2.2345   -1.1877    0.3184 B       1  UNL1        0.0000
      9 C          -3.3530   -2.2642    0.0328 C.3     1  UNL1        0.0000
     10 N          -2.5680    0.3046    0.4534 N.ar    1  UNL1        0.0000
     11 C          -0.0540   -2.7499   -0.0928 C.ar    1  UNL1        0.0000
     12 C           1.2681   -2.4264   -0.2689 C.ar    1  UNL1        0.0000
     13 C           1.3545   -1.0447   -0.2021 C.ar    1  UNL1        0.0000
     14 C          -1.4952    1.2172    0.3480 C.ar    1  UNL1        0.0000
     15 C          -1.8033    2.5664    0.4711 C.ar    1  UNL1        0.0000
     16 C          -0.7870    3.4797    0.3740 C.ar    1  UNL1        0.0000
     17 C           0.5076    3.1072    0.1618 C.ar    1  UNL1        0.0000
     18 H           4.0022   -1.3526   -1.3064 H       1  UNL1        0.0000
     19 H           4.6375    0.3150   -0.8248 H       1  UNL1        0.0000
     20 H           4.3717   -0.9690    0.4606 H       1  UNL1        0.0000
     21 H           2.9385    2.1415   -0.2519 H       1  UNL1        0.0000
     22 H          -2.9320   -3.0688   -0.5862 H       1  UNL1        0.0000
     23 H          -3.8324   -2.6516    0.9394 H       1  UNL1        0.0000
     24 H          -4.1853   -1.8073   -0.5781 H       1  UNL1        0.0000
     25 H          -3.5609    0.5818    0.6157 H       1  UNL1        0.0000
     26 H          -0.5319   -3.7097   -0.0777 H       1  UNL1        0.0000
     27 H           2.0730   -3.1006   -0.4263 H       1  UNL1        0.0000
     28 H          -2.8259    2.8726    0.6393 H       1  UNL1        0.0000
     29 H          -1.0314    4.5290    0.4704 H       1  UNL1        0.0000
     30 H           1.2631    3.8725    0.0946 H       1  UNL1        0.0000
@<TRIPOS>BOND
     1     1     2    1
     2     2     3   ar
     3     3     4   ar
     4     4     5   ar
     5     5     6   ar
     6     6     7   ar
     7     7     8   ar
     8     8     9    1
     9     8    10   ar
    10     7    11   ar
    11    11    12   ar
    12    12    13   ar
    13     5    14   ar
    14    14    15   ar
    15    15    16   ar
    16    16    17   ar
    17    13     2   ar
    18    17     4   ar
    19    13     6   ar
    20    14    10   ar
    21     1    18    1
    22     1    19    1
    23     1    20    1
    24     3    21    1
    25     9    22    1
    26     9    23    1
    27     9    24    1
    28    10    25    1
    29    11    26    1
    30    12    27    1
    31    15    28    1
    32    16    29    1
    33    17    30    1
