@<TRIPOS>MOLECULE
*****
 22 22 0 0 0
SMALL
GASTEIGER

@<TRIPOS>ATOM
      1 C          -1.9137    1.6811   -0.1197 C.3     1  UNL1       -0.0216
      2 C          -1.3763    0.3710    0.3990 C.2     1  UNL1        0.0519
      3 C          -2.0874   -0.3864    1.2677 C.2     1  UNL1        0.0364
      4 C          -3.3912   -0.0781    1.7400 C.1     1  UNL1        0.0931
      5 N          -4.4579    0.1748    2.1186 N.1     1  UNL1       -0.1914
      6 N          -0.0703   -0.0503    0.0103 N.ar    1  UNL1       -0.2224
      7 N           0.5499   -1.1434    0.5742 N.ar    1  UNL1       -0.1702
      8 C           1.8004   -1.1449    0.1157 C.ar    1  UNL1        0.0622
      9 C           2.7640   -2.1667    0.5905 C.3     1  UNL1       -0.0205
     10 C           2.0137   -0.1293   -0.8244 C.ar    1  UNL1        0.0006
     11 C           0.8069    0.5159   -0.9493 C.ar    1  UNL1        0.1196
     12 N           0.5041    1.5119   -1.8250 N.pl3   1  UNL1       -0.3430
     13 H          -2.7881    2.0355    0.4355 H       1  UNL1        0.0293
     14 H          -1.1686    2.4779   -0.0264 H       1  UNL1        0.0293
     15 H          -2.2250    1.5835   -1.1639 H       1  UNL1        0.0293
     16 H          -1.6744   -1.3162    1.6501 H       1  UNL1        0.0751
     17 H           2.8544   -2.1335    1.6811 H       1  UNL1        0.0293
     18 H           2.4338   -3.1693    0.3000 H       1  UNL1        0.0293
     19 H           3.7585   -2.0003    0.1642 H       1  UNL1        0.0293
     20 H           2.9182    0.0784   -1.3774 H       1  UNL1        0.0670
     21 H          -0.4364    1.5680   -2.2070 H       1  UNL1        0.1437
     22 H           1.1853    1.7204   -2.5538 H       1  UNL1        0.1437
@<TRIPOS>BOND
     1     1     2    1
     2     2     3    2
     3     3     4    1
     4     4     5    3
     5     2     6    1
     6     6     7   ar
     7     7     8   ar
     8     8     9    1
     9     8    10   ar
    10    10    11   ar
    11    11    12    1
    12    11     6   ar
    13     1    13    1
    14     1    14    1
    15     1    15    1
    16     3    16    1
    17     9    17    1
    18     9    18    1
    19     9    19    1
    20    10    20    1
    21    12    21    1
    22    12    22    1
