@<TRIPOS>MOLECULE
*****
 23 24 0 0 0
SMALL
GASTEIGER

@<TRIPOS>ATOM
      1 C          -0.1587   -1.8729   -0.1342 C.3     1  UNL1       -0.0200
      2 C          -0.1195   -0.3595   -0.0285 C.2     1  UNL1        0.0676
      3 N          -1.1590    0.4228    0.0385 N.2     1  UNL1       -0.1687
      4 N          -2.4028   -0.1060    0.1889 N.ar    1  UNL1       -0.2069
      5 C          -3.5380    0.3900   -0.3955 C.ar    1  UNL1        0.1414
      6 N          -4.5904   -0.2996   -0.0176 N.ar    1  UNL1       -0.1363
      7 N          -4.1624   -1.2352    0.8937 N.ar    1  UNL1       -0.1363
      8 C          -2.8657   -1.0779    1.0389 C.ar    1  UNL1        0.1414
      9 C           1.2287    0.2890   -0.0472 C.ar    1  UNL1        0.0158
     10 C           1.3638    1.6237   -0.4392 C.ar    1  UNL1       -0.0500
     11 C           2.6243    2.2180   -0.4427 C.ar    1  UNL1       -0.0430
     12 C           3.7114    1.4567   -0.0467 C.ar    1  UNL1        0.0276
     13 N           3.6183    0.1684    0.3484 N.ar    1  UNL1       -0.2626
     14 C           2.3801   -0.3839    0.3450 C.ar    1  UNL1        0.0364
     15 H           0.7064   -2.2509   -0.6868 H       1  UNL1        0.0293
     16 H          -1.0413   -2.2023   -0.6888 H       1  UNL1        0.0293
     17 H          -0.1598   -2.3134    0.8661 H       1  UNL1        0.0293
     18 H          -3.5233    1.2232   -1.0806 H       1  UNL1        0.1067
     19 H          -2.2386   -1.6108    1.7352 H       1  UNL1        0.1067
     20 H           0.4971    2.2049   -0.7442 H       1  UNL1        0.0625
     21 H           2.7535    3.2515   -0.7457 H       1  UNL1        0.0633
     22 H           4.7141    1.8755   -0.0331 H       1  UNL1        0.0829
     23 H           2.3617   -1.4111    0.6958 H       1  UNL1        0.0836
@<TRIPOS>BOND
     1     1     2    1
     2     2     3    2
     3     3     4    1
     4     4     5   ar
     5     5     6   ar
     6     6     7   ar
     7     7     8   ar
     8     2     9    1
     9     9    10   ar
    10    10    11   ar
    11    11    12   ar
    12    12    13   ar
    13    13    14   ar
    14     8     4   ar
    15    14     9   ar
    16     1    15    1
    17     1    16    1
    18     1    17    1
    19     5    18    1
    20     8    19    1
    21    10    20    1
    22    11    21    1
    23    12    22    1
    24    14    23    1
