@<TRIPOS>MOLECULE
*****
 37 39 0 0 0
SMALL
GASTEIGER

@<TRIPOS>ATOM
      1 C          -2.0049   -2.8959    0.7098 C.3     1  UNL1       -0.0200
      2 C          -1.6168   -1.4513    0.4692 C.2     1  UNL1        0.0678
      3 N          -0.4838   -1.0021    0.0127 N.2     1  UNL1       -0.1493
      4 N           0.5007   -1.8449   -0.4118 N.ar    1  UNL1       -0.0943
      5 N           0.3787   -3.1604   -0.6603 N.ar    1  UNL1       -0.0198
      6 N           1.5651   -3.5649   -1.0855 N.ar    1  UNL1       -0.0196
      7 N           2.4513   -2.5230   -1.1480 N.ar    1  UNL1       -0.0901
      8 C           1.7978   -1.4503   -0.7520 C.ar    1  UNL1        0.2616
      9 N           2.1635   -0.1459   -0.6363 N.pl3   1  UNL1       -0.2811
     10 C           3.4040    0.4497   -0.9259 C.ar    1  UNL1        0.0337
     11 C           4.5301   -0.2582   -1.3607 C.ar    1  UNL1       -0.0405
     12 C           5.7387    0.3955   -1.6276 C.ar    1  UNL1       -0.0600
     13 C           5.8422    1.7731   -1.4625 C.ar    1  UNL1       -0.0616
     14 C           4.7370    2.4976   -1.0296 C.ar    1  UNL1       -0.0600
     15 C           3.5318    1.8402   -0.7638 C.ar    1  UNL1       -0.0405
     16 C          -2.6481   -0.4256    0.8204 C.ar    1  UNL1       -0.0022
     17 C          -4.0013   -0.6405    0.5475 C.ar    1  UNL1       -0.0511
     18 C          -4.9436    0.3380    0.8816 C.ar    1  UNL1       -0.0404
     19 C          -4.5459    1.5542    1.4435 C.ar    1  UNL1        0.0246
     20 N          -5.5037    2.4714    1.8864 N.pl3   1  UNL1       -0.3580
     21 C          -3.1968    1.7403    1.7548 C.ar    1  UNL1       -0.0404
     22 C          -2.2462    0.7699    1.4236 C.ar    1  UNL1       -0.0511
     23 H          -2.1901   -3.3960   -0.2445 H       1  UNL1        0.0293
     24 H          -1.2163   -3.4091    1.2673 H       1  UNL1        0.0293
     25 H          -2.9092   -2.9753    1.3199 H       1  UNL1        0.0293
     26 H           1.4416    0.5060   -0.3405 H       1  UNL1        0.1551
     27 H           4.4970   -1.3344   -1.5017 H       1  UNL1        0.0636
     28 H           6.5975   -0.1793   -1.9649 H       1  UNL1        0.0618
     29 H           6.7813    2.2784   -1.6706 H       1  UNL1        0.0618
     30 H           4.8096    3.5738   -0.8980 H       1  UNL1        0.0618
     31 H           2.6854    2.4333   -0.4269 H       1  UNL1        0.0636
     32 H          -4.3425   -1.5567    0.0736 H       1  UNL1        0.0625
     33 H          -5.9965    0.1431    0.6929 H       1  UNL1        0.0636
     34 H          -6.3801    2.4371    1.3748 H       1  UNL1        0.1423
     35 H          -5.1551    3.4196    1.9877 H       1  UNL1        0.1423
     36 H          -2.8722    2.6468    2.2594 H       1  UNL1        0.0636
     37 H          -1.2003    0.9458    1.6606 H       1  UNL1        0.0625
@<TRIPOS>BOND
     1     1     2    1
     2     2     3    2
     3     3     4    1
     4     4     5   ar
     5     5     6   ar
     6     6     7   ar
     7     7     8   ar
     8     8     9    1
     9     9    10    1
    10    10    11   ar
    11    11    12   ar
    12    12    13   ar
    13    13    14   ar
    14    14    15   ar
    15     2    16    1
    16    16    17   ar
    17    17    18   ar
    18    18    19   ar
    19    19    20    1
    20    19    21   ar
    21    21    22   ar
    22     8     4   ar
    23    15    10   ar
    24    22    16   ar
    25     1    23    1
    26     1    24    1
    27     1    25    1
    28     9    26    1
    29    11    27    1
    30    12    28    1
    31    13    29    1
    32    14    30    1
    33    15    31    1
    34    17    32    1
    35    18    33    1
    36    20    34    1
    37    20    35    1
    38    21    36    1
    39    22    37    1
