@<TRIPOS>MOLECULE
*****
 35 37 0 0 0
SMALL
GASTEIGER

@<TRIPOS>ATOM
      1 C           3.0378   -1.0235   -1.2128 C.3     1  UNL1       -0.0198
      2 C           2.7081   -0.0463   -0.0985 C.2     1  UNL1        0.0699
      3 N           1.4993    0.3562    0.1938 N.2     1  UNL1       -0.1840
      4 N           0.4162   -0.2261   -0.4167 N.am    1  UNL1       -0.2052
      5 C           0.1134   -1.5675   -0.1610 C.2     1  UNL1        0.2520
      6 O           0.8762   -2.3682    0.3778 O.2     1  UNL1       -0.2721
      7 C          -1.2327   -2.0107   -0.6911 C.3     1  UNL1        0.1025
      8 N          -2.3278   -1.2666   -0.1072 N.ar    1  UNL1       -0.3211
      9 C          -2.8019   -1.4409    1.1629 C.ar    1  UNL1        0.0975
     10 N          -3.7886   -0.6157    1.4254 N.ar    1  UNL1       -0.2357
     11 C          -3.9650    0.1177    0.2787 C.ar    1  UNL1        0.0890
     12 C          -4.8833    1.1421    0.0083 C.ar    1  UNL1       -0.0342
     13 C          -4.8647    1.7482   -1.2532 C.ar    1  UNL1       -0.0596
     14 C          -3.9514    1.3410   -2.2272 C.ar    1  UNL1       -0.0597
     15 C          -3.0266    0.3202   -1.9765 C.ar    1  UNL1       -0.0361
     16 C          -3.0606   -0.2714   -0.7080 C.ar    1  UNL1        0.0690
     17 C           3.7971    0.5211    0.6973 C.ar    1  UNL1        0.0346
     18 C           3.7030    1.5103    1.6641 C.ar    1  UNL1       -0.0457
     19 C           4.9570    1.8227    2.2637 C.ar    1  UNL1       -0.0541
     20 C           5.9766    1.0595    1.7432 C.ar    1  UNL1       -0.0237
     21 S           5.4187   -0.0187    0.5419 S.2     1  UNL1       -0.0954
     22 H           3.3321   -1.9854   -0.7848 H       1  UNL1        0.0293
     23 H           3.8590   -0.6358   -1.8224 H       1  UNL1        0.0293
     24 H           2.1951   -1.1790   -1.8896 H       1  UNL1        0.0293
     25 H          -0.3866    0.4031   -0.4294 H       1  UNL1        0.1773
     26 H          -1.3905   -3.0682   -0.4516 H       1  UNL1        0.0589
     27 H          -1.2530   -1.9043   -1.7796 H       1  UNL1        0.0589
     28 H          -2.3936   -2.1713    1.8510 H       1  UNL1        0.1029
     29 H          -5.5909    1.4507    0.7699 H       1  UNL1        0.0639
     30 H          -5.5730    2.5431   -1.4744 H       1  UNL1        0.0618
     31 H          -3.9611    1.8256   -3.2017 H       1  UNL1        0.0618
     32 H          -2.3272    0.0094   -2.7446 H       1  UNL1        0.0639
     33 H           2.7657    1.9859    1.9315 H       1  UNL1        0.0629
     34 H           5.0995    2.5629    3.0412 H       1  UNL1        0.0623
     35 H           7.0239    1.0799    2.0129 H       1  UNL1        0.0693
@<TRIPOS>BOND
     1     1     2    1
     2     2     3    2
     3     3     4    1
     4     4     5   am
     5     5     6    2
     6     5     7    1
     7     7     8    1
     8     8     9   ar
     9     9    10   ar
    10    10    11   ar
    11    11    12   ar
    12    12    13   ar
    13    13    14   ar
    14    14    15   ar
    15    15    16   ar
    16     2    17    1
    17    17    18   ar
    18    18    19   ar
    19    19    20   ar
    20    20    21   ar
    21    16     8   ar
    22    21    17   ar
    23    16    11   ar
    24     1    22    1
    25     1    23    1
    26     1    24    1
    27     4    25    1
    28     7    26    1
    29     7    27    1
    30     9    28    1
    31    12    29    1
    32    13    30    1
    33    14    31    1
    34    15    32    1
    35    18    33    1
    36    19    34    1
    37    20    35    1
