@<TRIPOS>MOLECULE
*****
 26 26 0 0 0
SMALL
GASTEIGER

@<TRIPOS>ATOM
      1 C           0.0104   -1.9323    1.6040 C.3     1  UNL1       -0.0201
      2 C           0.3707   -0.7703    0.7061 C.2     1  UNL1        0.0698
      3 N           1.6312   -0.5793    0.4503 N.2     1  UNL1       -0.1851
      4 N           1.9837    0.4285   -0.4023 N.am    1  UNL1       -0.2183
      5 C           3.2971    0.7034   -0.6634 C.2     1  UNL1        0.1473
      6 N           4.1976   -0.0063    0.0568 N.am    1  UNL1       -0.3394
      7 S           3.7568    1.8475   -1.7720 S.2     1  UNL1       -0.0174
      8 C          -0.7491    0.0810    0.2394 C.ar    1  UNL1        0.0745
      9 C          -0.8025    1.3976    0.7158 C.ar    1  UNL1       -0.0463
     10 C          -1.8603    2.2330    0.3472 C.ar    1  UNL1       -0.0607
     11 C          -2.8748    1.7599   -0.4884 C.ar    1  UNL1       -0.0553
     12 C          -2.8353    0.4491   -0.9652 C.ar    1  UNL1        0.0163
     13 C          -1.7669   -0.3804   -0.5989 C.ar    1  UNL1        0.2820
     14 N          -1.7369   -1.7260   -1.1340 N.pl3   1  UNL1        0.0803
     15 O          -2.7494   -2.4175   -0.9660 O.2     1  UNL1        0.0415
     16 O          -0.7120   -2.0796   -1.7273 O.co2   1  UNL1       -0.5760
     17 H           0.5881   -1.8630    2.5307 H       1  UNL1        0.0293
     18 H           0.2618   -2.8698    1.0998 H       1  UNL1        0.0293
     19 H          -1.0529   -1.9347    1.8578 H       1  UNL1        0.0293
     20 H           1.2874    0.9145   -0.9568 H       1  UNL1        0.1762
     21 H           3.8262   -0.8159    0.5409 H       1  UNL1        0.1440
     22 H           5.1768    0.0246   -0.1866 H       1  UNL1        0.1440
     23 H          -0.0249    1.7759    1.3788 H       1  UNL1        0.0626
     24 H          -1.8969    3.2562    0.7180 H       1  UNL1        0.0618
     25 H          -3.6973    2.4164   -0.7673 H       1  UNL1        0.0620
     26 H          -3.6285    0.0878   -1.6173 H       1  UNL1        0.0685
@<TRIPOS>UNITY_ATOM_ATTR
14 1
charge 1
16 1
charge -1
@<TRIPOS>BOND
     1     1     2    1
     2     2     3    2
     3     3     4    1
     4     4     5    1
     5     5     6    1
     6     5     7    2
     7     2     8    1
     8     8     9   ar
     9     9    10   ar
    10    10    11   ar
    11    11    12   ar
    12    12    13   ar
    13    13    14    1
    14    14    15    2
    15    14    16    1
    16    13     8   ar
    17     1    17    1
    18     1    18    1
    19     1    19    1
    20     4    20    1
    21     6    21    1
    22     6    22    1
    23     9    23    1
    24    10    24    1
    25    11    25    1
    26    12    26    1
