@<TRIPOS>MOLECULE
*****
 42 48 0 0 0
SMALL
GASTEIGER

@<TRIPOS>ATOM
      1 SI         -6.4069   -0.9200   -0.3776 Si      1  UNL1        0.0000
      2 C          -6.2781    0.9038   -0.0104 C.2     1  UNL1        0.0000
      3 C          -4.9906    1.2877    0.0829 C.ar    1  UNL1        0.0000
      4 C          -4.5791    2.6737    0.2629 C.ar    1  UNL1        0.0000
      5 C          -3.2726    2.9962    0.2548 C.ar    1  UNL1        0.0000
      6 C          -2.3182    1.9425    0.1202 C.ar    1  UNL1        0.0000
      7 O          -0.9596    2.1325    0.0923 O.2     1  UNL1        0.0000
      8 C          -0.3611    0.9035    0.0301 C.ar    1  UNL1        0.0000
      9 C          -1.3583   -0.0591    0.0299 C.ar    1  UNL1        0.0000
     10 C          -0.8938   -1.4051    0.0711 C.ar    1  UNL1        0.0000
     11 C          -1.5288   -2.5998    0.2049 C.ar    1  UNL1        0.0000
     12 O          -0.5797   -3.5908    0.2033 O.2     1  UNL1        0.0000
     13 C           0.6457   -2.9880    0.0986 C.ar    1  UNL1        0.0000
     14 C           0.5022   -1.6211    0.0370 C.ar    1  UNL1        0.0000
     15 C           1.5452   -0.6684   -0.0173 C.ar    1  UNL1        0.0000
     16 C           2.9415   -0.9026   -0.0548 C.ar    1  UNL1        0.0000
     17 C           3.8445    0.1720   -0.0818 C.ar    1  UNL1        0.0000
     18 C           3.3308    1.4821   -0.0665 C.ar    1  UNL1        0.0000
     19 C           1.9528    1.7316   -0.0276 C.ar    1  UNL1        0.0000
     20 C           1.0463    0.6616   -0.0060 C.ar    1  UNL1        0.0000
     21 C           5.2860   -0.0729   -0.1221 C.ar    1  UNL1        0.0000
     22 C           6.0771   -1.2071   -0.1468 C.ar    1  UNL1        0.0000
     23 C           7.4241   -0.7691   -0.1828 C.ar    1  UNL1        0.0000
     24 C           7.3774    0.6033   -0.1780 C.ar    1  UNL1        0.0000
     25 O           6.0913    1.0337   -0.1415 O.2     1  UNL1        0.0000
     26 C          -2.6051    0.5704    0.0044 C.ar    1  UNL1        0.0000
     27 C          -3.9853    0.1904   -0.0840 C.ar    1  UNL1        0.0000
     28 C          -4.5348   -0.9998   -0.3867 C.2     1  UNL1        0.0000
     29 H          -6.9940   -1.6873    0.7465 H       1  UNL1        0.0000
     30 H          -6.9868   -1.1913   -1.7143 H       1  UNL1        0.0000
     31 H          -7.1547    1.5286    0.0560 H       1  UNL1        0.0000
     32 H          -5.3387    3.4404    0.3709 H       1  UNL1        0.0000
     33 H          -2.9284    4.0173    0.3650 H       1  UNL1        0.0000
     34 H          -2.5395   -2.9476    0.3349 H       1  UNL1        0.0000
     35 H           1.4878   -3.6654    0.1028 H       1  UNL1        0.0000
     36 H           3.3086   -1.9244   -0.0602 H       1  UNL1        0.0000
     37 H           4.0086    2.3343   -0.0848 H       1  UNL1        0.0000
     38 H           1.5975    2.7598   -0.0173 H       1  UNL1        0.0000
     39 H           5.7298   -2.2300   -0.1400 H       1  UNL1        0.0000
     40 H           8.3166   -1.3779   -0.2089 H       1  UNL1        0.0000
     41 H           8.1292    1.3799   -0.1967 H       1  UNL1        0.0000
     42 H          -4.0491   -1.9179   -0.6518 H       1  UNL1        0.0000
@<TRIPOS>BOND
     1     1     2    1
     2     2     3    2
     3     3     4   ar
     4     4     5   ar
     5     5     6   ar
     6     6     7   ar
     7     7     8   ar
     8     8     9   ar
     9     9    10   ar
    10    10    11   ar
    11    11    12   ar
    12    12    13   ar
    13    13    14   ar
    14    14    15   ar
    15    15    16   ar
    16    16    17   ar
    17    17    18   ar
    18    18    19   ar
    19    19    20   ar
    20    17    21    1
    21    21    22   ar
    22    22    23   ar
    23    23    24   ar
    24    24    25   ar
    25     9    26   ar
    26    26    27   ar
    27    27    28    2
    28    28     1    1
    29    27     3   ar
    30    26     6   ar
    31    20     8   ar
    32    25    21   ar
    33    14    10   ar
    34    20    15   ar
    35     1    29    1
    36     1    30    1
    37     2    31    1
    38     4    32    1
    39     5    33    1
    40    11    34    1
    41    13    35    1
    42    16    36    1
    43    18    37    1
    44    19    38    1
    45    22    39    1
    46    23    40    1
    47    24    41    1
    48    28    42    1
