@<TRIPOS>MOLECULE
*****
 34 34 0 0 0
SMALL
GASTEIGER

@<TRIPOS>ATOM
      1 C           5.0796   -0.1362    0.4390 C.3     1  UNL1       -0.0141
      2 C           3.9417    0.2072   -0.4793 C.2     1  UNL1        0.1381
      3 N           4.1647    0.9274   -1.5428 N.2     1  UNL1       -0.0871
      4 O           3.0033    1.1959   -2.2736 O.2     1  UNL1       -0.4089
      5 C           2.5826   -0.3343   -0.0594 C.2     1  UNL1        0.2612
      6 O           2.2289   -0.2373    1.1056 O.2     1  UNL1       -0.2688
      7 N           1.8711   -0.9374   -1.0704 N.am    1  UNL1       -0.3091
      8 C           0.4990   -1.3643   -0.8788 C.3     1  UNL1        0.0247
      9 C          -0.4871   -0.1788   -0.8631 C.3     1  UNL1        0.0145
     10 N          -1.9048   -0.5865   -0.8828 N.3     1  UNL1       -0.3008
     11 C          -2.3359   -1.2808    0.3417 C.3     1  UNL1       -0.0011
     12 C          -2.4479   -0.3744    1.5704 C.3     1  UNL1       -0.0402
     13 C          -3.3464    0.8256    1.2911 C.3     1  UNL1       -0.0507
     14 C          -2.9236    1.5397    0.0116 C.3     1  UNL1       -0.0402
     15 C          -2.7914    0.5578   -1.1557 C.3     1  UNL1       -0.0011
     16 H           6.0324    0.1725   -0.0004 H       1  UNL1        0.0295
     17 H           4.9461    0.3783    1.3944 H       1  UNL1        0.0295
     18 H           5.1011   -1.2163    0.6086 H       1  UNL1        0.0295
     19 H           3.3214    1.8323   -2.9442 H       1  UNL1        0.3278
     20 H           2.1884   -0.7134   -2.0095 H       1  UNL1        0.1491
     21 H           0.4518   -1.9230    0.0615 H       1  UNL1        0.0475
     22 H           0.2635   -2.0480   -1.7014 H       1  UNL1        0.0475
     23 H          -0.2832    0.4144   -1.7651 H       1  UNL1        0.0442
     24 H          -0.2617    0.4776   -0.0149 H       1  UNL1        0.0442
     25 H          -3.3191   -1.7302    0.1475 H       1  UNL1        0.0426
     26 H          -1.6810   -2.1293    0.5659 H       1  UNL1        0.0426
     27 H          -1.4542   -0.0282    1.8787 H       1  UNL1        0.0278
     28 H          -2.8552   -0.9470    2.4116 H       1  UNL1        0.0278
     29 H          -4.3843    0.4851    1.1893 H       1  UNL1        0.0266
     30 H          -3.3197    1.5213    2.1370 H       1  UNL1        0.0266
     31 H          -3.6631    2.3090   -0.2387 H       1  UNL1        0.0278
     32 H          -1.9731    2.0606    0.1770 H       1  UNL1        0.0278
     33 H          -3.7871    0.1686   -1.4060 H       1  UNL1        0.0426
     34 H          -2.4566    1.0921   -2.0535 H       1  UNL1        0.0426
@<TRIPOS>BOND
     1     1     2    1
     2     2     3    2
     3     3     4    1
     4     2     5    1
     5     5     6    2
     6     5     7   am
     7     7     8    1
     8     8     9    1
     9     9    10    1
    10    10    11    1
    11    11    12    1
    12    12    13    1
    13    13    14    1
    14    14    15    1
    15    15    10    1
    16     1    16    1
    17     1    17    1
    18     1    18    1
    19     4    19    1
    20     7    20    1
    21     8    21    1
    22     8    22    1
    23     9    23    1
    24     9    24    1
    25    11    25    1
    26    11    26    1
    27    12    27    1
    28    12    28    1
    29    13    29    1
    30    13    30    1
    31    14    31    1
    32    14    32    1
    33    15    33    1
    34    15    34    1
