@<TRIPOS>MOLECULE
*****
 40 41 0 0 0
SMALL
GASTEIGER

@<TRIPOS>ATOM
      1 C           1.8802   -0.5831    2.6686 C.3     1  UNL1       -0.0013
      2 C           2.5154    0.7520    2.3726 C.2     1  UNL1        0.1635
      3 O           2.7049    1.5818    3.2608 O.2     1  UNL1       -0.2922
      4 C           2.9773    1.0283    0.9872 C.2     1  UNL1        0.0598
      5 C           2.1276    1.0067   -0.0586 C.2     1  UNL1       -0.0391
      6 C           0.7154    0.7970   -0.0245 C.ar    1  UNL1       -0.0032
      7 C          -0.2161    1.4470    0.8075 C.ar    1  UNL1       -0.0334
      8 C          -1.4704    0.9526    0.5080 C.ar    1  UNL1        0.0215
      9 C          -2.7471    1.2715    1.2105 C.3     1  UNL1       -0.0239
     10 N          -1.3375    0.0214   -0.5209 N.ar    1  UNL1       -0.3171
     11 C          -2.3957   -0.7332   -1.1072 C.ar    1  UNL1        0.0465
     12 C          -3.5934   -0.1041   -1.4680 C.ar    1  UNL1       -0.0378
     13 C          -4.6269   -0.8470   -2.0422 C.ar    1  UNL1       -0.0598
     14 C          -4.4714   -2.2163   -2.2531 C.ar    1  UNL1       -0.0616
     15 C          -3.2812   -2.8467   -1.8931 C.ar    1  UNL1       -0.0598
     16 C          -2.2421   -2.1086   -1.3224 C.ar    1  UNL1       -0.0378
     17 C           0.0161   -0.0497   -0.8677 C.ar    1  UNL1        0.0281
     18 C           0.5346   -0.8635   -2.0112 C.3     1  UNL1       -0.0233
     19 C           4.4113    1.3640    0.7151 C.2     1  UNL1        0.1635
     20 C           5.3654    1.4331    1.8808 C.3     1  UNL1       -0.0013
     21 O           4.8121    1.5694   -0.4321 O.2     1  UNL1       -0.2922
     22 H           0.8295   -0.4404    2.9320 H       1  UNL1        0.0309
     23 H           1.9515   -1.2600    1.8131 H       1  UNL1        0.0309
     24 H           2.4115   -1.0469    3.5051 H       1  UNL1        0.0309
     25 H           2.5369    1.1895   -1.0529 H       1  UNL1        0.0632
     26 H          -0.0087    2.1908    1.5688 H       1  UNL1        0.0641
     27 H          -3.3240    2.0130    0.6498 H       1  UNL1        0.0292
     28 H          -3.3583    0.3778    1.3693 H       1  UNL1        0.0292
     29 H          -2.5416    1.6973    2.1992 H       1  UNL1        0.0292
     30 H          -3.7254    0.9678   -1.3520 H       1  UNL1        0.0638
     31 H          -5.5518   -0.3549   -2.3328 H       1  UNL1        0.0618
     32 H          -5.2783   -2.7926   -2.6988 H       1  UNL1        0.0618
     33 H          -3.1648   -3.9162   -2.0503 H       1  UNL1        0.0618
     34 H          -1.3407   -2.6309   -1.0146 H       1  UNL1        0.0638
     35 H          -0.1763   -0.8987   -2.8422 H       1  UNL1        0.0292
     36 H           0.7612   -1.8827   -1.6848 H       1  UNL1        0.0292
     37 H           1.4577   -0.4345   -2.4141 H       1  UNL1        0.0292
     38 H           6.3898    1.5039    1.5032 H       1  UNL1        0.0309
     39 H           5.2967    0.5253    2.4857 H       1  UNL1        0.0309
     40 H           5.1569    2.3195    2.4851 H       1  UNL1        0.0309
@<TRIPOS>BOND
     1     1     2    1
     2     2     3    2
     3     2     4    1
     4     4     5    2
     5     5     6    1
     6     6     7   ar
     7     7     8   ar
     8     8     9    1
     9     8    10   ar
    10    10    11    1
    11    11    12   ar
    12    12    13   ar
    13    13    14   ar
    14    14    15   ar
    15    15    16   ar
    16    10    17   ar
    17    17    18    1
    18     4    19    1
    19    19    20    1
    20    19    21    2
    21    17     6   ar
    22    16    11   ar
    23     1    22    1
    24     1    23    1
    25     1    24    1
    26     5    25    1
    27     7    26    1
    28     9    27    1
    29     9    28    1
    30     9    29    1
    31    12    30    1
    32    13    31    1
    33    14    32    1
    34    15    33    1
    35    16    34    1
    36    18    35    1
    37    18    36    1
    38    18    37    1
    39    20    38    1
    40    20    39    1
    41    20    40    1
