@<TRIPOS>MOLECULE
*****
 24 25 0 0 0
SMALL
GASTEIGER

@<TRIPOS>ATOM
      1 C           3.2193   -1.3981    2.5385 C.3     1  UNL1       -0.0004
      2 C           1.8609   -1.2316    1.9022 C.2     1  UNL1        0.1779
      3 O           1.0585   -2.1679    1.8847 O.2     1  UNL1       -0.2913
      4 C           1.5133    0.1013    1.3224 C.2     1  UNL1        0.1782
      5 C           2.1703    1.2552    1.8205 C.1     1  UNL1        0.1105
      6 N           2.7034    2.1953    2.2434 N.1     1  UNL1       -0.1905
      7 C           0.6001    0.1830    0.3315 C.2     1  UNL1        0.2864
      8 N           0.1495    1.3744   -0.2708 N.pl3   1  UNL1       -0.2007
      9 C          -1.0189    1.0350   -0.9859 C.ar    1  UNL1        0.1634
     10 C          -1.8752    1.8353   -1.7045 C.ar    1  UNL1       -0.0130
     11 C          -2.9239    1.2023   -2.3807 C.ar    1  UNL1       -0.0577
     12 C          -3.0744   -0.2008   -2.3439 C.ar    1  UNL1       -0.0577
     13 C          -2.1795   -1.0059   -1.6306 C.ar    1  UNL1       -0.0130
     14 C          -1.1693   -0.3707   -0.9490 C.ar    1  UNL1        0.1634
     15 N          -0.0946   -0.9060   -0.2206 N.pl3   1  UNL1       -0.2007
     16 H           3.2112   -0.9764    3.5466 H       1  UNL1        0.0310
     17 H           3.4595   -2.4640    2.5987 H       1  UNL1        0.0310
     18 H           3.9917   -0.9202    1.9296 H       1  UNL1        0.0310
     19 H           0.1502    2.2352    0.2602 H       1  UNL1        0.2983
     20 H          -1.7422    2.9087   -1.7570 H       1  UNL1        0.0659
     21 H          -3.6272    1.7983   -2.9587 H       1  UNL1        0.0619
     22 H          -3.8910   -0.6640   -2.8938 H       1  UNL1        0.0619
     23 H          -2.2759   -2.0847   -1.6256 H       1  UNL1        0.0659
     24 H          -0.2158   -1.7338    0.3581 H       1  UNL1        0.2983
@<TRIPOS>BOND
     1     1     2    1
     2     2     3    2
     3     2     4    1
     4     4     5    1
     5     5     6    3
     6     4     7    2
     7     7     8    1
     8     8     9    1
     9     9    10   ar
    10    10    11   ar
    11    11    12   ar
    12    12    13   ar
    13    13    14   ar
    14    14    15    1
    15    15     7    1
    16    14     9   ar
    17     1    16    1
    18     1    17    1
    19     1    18    1
    20     8    19    1
    21    10    20    1
    22    11    21    1
    23    12    22    1
    24    13    23    1
    25    15    24    1
