@<TRIPOS>MOLECULE
*****
 39 41 0 0 0
SMALL
GASTEIGER

@<TRIPOS>ATOM
      1 C          -4.8018    1.3670   -0.0704 C.3     1  UNL1       -0.0023
      2 C          -4.5267    0.0749    0.6559 C.2     1  UNL1        0.1701
      3 O          -4.7284   -0.0285    1.8686 O.2     1  UNL1       -0.2938
      4 C          -4.0192   -1.1149   -0.1643 C.3     1  UNL1        0.1545
      5 C          -5.1730   -1.6922   -0.9778 C.3     1  UNL1       -0.0208
      6 O          -2.9858   -0.7613   -1.0767 O.3     1  UNL1       -0.4815
      7 C          -1.7229   -0.5673   -0.5926 C.ar    1  UNL1        0.1250
      8 C          -1.3298   -0.6110    0.7442 C.ar    1  UNL1       -0.0191
      9 C           0.0094   -0.3810    1.1001 C.ar    1  UNL1       -0.0474
     10 C           0.9810   -0.1064    0.1300 C.ar    1  UNL1        0.0213
     11 C           2.3987    0.1433    0.4332 C.ar    1  UNL1       -0.0268
     12 C           3.2386    0.4522   -0.5746 C.ar    1  UNL1        0.0408
     13 C           2.7903    0.5023   -1.9903 C.ar    1  UNL1        0.3407
     14 O           3.5657    0.7654   -2.9036 O.2     1  UNL1       -0.2449
     15 O           1.4560    0.2292   -2.2382 O.2     1  UNL1       -0.4218
     16 C           0.5602   -0.0591   -1.1955 C.ar    1  UNL1        0.1428
     17 C          -0.7669   -0.2856   -1.5660 C.ar    1  UNL1        0.0231
     18 C           4.6957    0.7792   -0.3601 C.3     1  UNL1       -0.0206
     19 C           5.0466    1.0591    1.1007 C.3     1  UNL1       -0.0485
     20 C           4.3989    0.0306    2.0144 C.3     1  UNL1       -0.0487
     21 C           2.8757    0.0453    1.8648 C.3     1  UNL1       -0.0265
     22 H          -3.8925    1.7239   -0.5590 H       1  UNL1        0.0307
     23 H          -5.5954    1.2217   -0.8063 H       1  UNL1        0.0307
     24 H          -5.1271    2.1253    0.6478 H       1  UNL1        0.0307
     25 H          -3.6781   -1.9027    0.5191 H       1  UNL1        0.0811
     26 H          -6.0276   -1.9399   -0.3403 H       1  UNL1        0.0269
     27 H          -4.8513   -2.5990   -1.5015 H       1  UNL1        0.0269
     28 H          -5.5093   -0.9900   -1.7485 H       1  UNL1        0.0269
     29 H          -2.0308   -0.8150    1.5488 H       1  UNL1        0.0654
     30 H           0.2624   -0.4177    2.1568 H       1  UNL1        0.0626
     31 H          -1.0509   -0.2401   -2.6140 H       1  UNL1        0.0691
     32 H           4.9826    1.6582   -0.9499 H       1  UNL1        0.0315
     33 H           5.2980   -0.0638   -0.7217 H       1  UNL1        0.0315
     34 H           6.1349    1.0462    1.2283 H       1  UNL1        0.0269
     35 H           4.7041    2.0642    1.3782 H       1  UNL1        0.0269
     36 H           4.7831   -0.9683    1.7707 H       1  UNL1        0.0268
     37 H           4.6687    0.2287    3.0579 H       1  UNL1        0.0268
     38 H           2.4957   -0.8695    2.3353 H       1  UNL1        0.0313
     39 H           2.4714    0.8967    2.4274 H       1  UNL1        0.0313
@<TRIPOS>BOND
     1     1     2    1
     2     2     3    2
     3     2     4    1
     4     4     5    1
     5     4     6    1
     6     6     7    1
     7     7     8   ar
     8     8     9   ar
     9     9    10   ar
    10    10    11   ar
    11    11    12   ar
    12    12    13   ar
    13    13    14    2
    14    13    15   ar
    15    15    16   ar
    16    16    17   ar
    17    12    18    1
    18    18    19    1
    19    19    20    1
    20    20    21    1
    21    17     7   ar
    22    16    10   ar
    23    21    11    1
    24     1    22    1
    25     1    23    1
    26     1    24    1
    27     4    25    1
    28     5    26    1
    29     5    27    1
    30     5    28    1
    31     8    29    1
    32     9    30    1
    33    17    31    1
    34    18    32    1
    35    18    33    1
    36    19    34    1
    37    19    35    1
    38    20    36    1
    39    20    37    1
    40    21    38    1
    41    21    39    1
