@<TRIPOS>MOLECULE
*****
 34 35 0 0 0
SMALL
GASTEIGER

@<TRIPOS>ATOM
      1 C          -4.6257   -1.1844    1.2218 C.3     1  UNL1       -0.0013
      2 C          -4.0845    0.1185    0.6950 C.2     1  UNL1        0.1621
      3 O          -4.8440    1.0854    0.5999 O.2     1  UNL1       -0.2923
      4 C          -2.6653    0.2174    0.3027 C.ar    1  UNL1        0.0410
      5 C          -2.1617    1.2416   -0.4928 C.ar    1  UNL1        0.0242
      6 C          -2.8402    2.4151   -1.1119 C.3     1  UNL1       -0.0238
      7 N          -0.8291    1.0125   -0.6968 N.ar    1  UNL1       -0.3538
      8 C          -0.4211   -0.1140   -0.0243 C.ar    1  UNL1        0.1059
      9 C           0.9401   -0.6298   -0.0608 C.2     1  UNL1        0.2648
     10 O           1.1786   -1.8292   -0.1247 O.2     1  UNL1       -0.2682
     11 N           1.8928    0.3709    0.0132 N.am    1  UNL1       -0.2790
     12 C           3.2948    0.2242   -0.0639 C.ar    1  UNL1        0.0520
     13 C           3.9500   -0.9642   -0.3752 C.ar    1  UNL1       -0.0376
     14 C           5.3443   -0.9929   -0.4356 C.ar    1  UNL1       -0.0418
     15 C           6.0437    0.1756   -0.1863 C.ar    1  UNL1        0.0277
     16 N           5.4505    1.3494    0.1124 N.ar    1  UNL1       -0.2614
     17 C           4.0970    1.3428    0.1665 C.ar    1  UNL1        0.0487
     18 C          -1.5453   -0.6426    0.6088 C.ar    1  UNL1       -0.0100
     19 C          -1.5468   -1.8674    1.4639 C.3     1  UNL1       -0.0369
     20 H          -4.3256   -1.3224    2.2623 H       1  UNL1        0.0309
     21 H          -4.2892   -2.0191    0.6025 H       1  UNL1        0.0309
     22 H          -5.7194   -1.1631    1.1791 H       1  UNL1        0.0309
     23 H          -3.2028    3.0982   -0.3374 H       1  UNL1        0.0292
     24 H          -3.6898    2.0904   -1.7208 H       1  UNL1        0.0292
     25 H          -2.1600    2.9760   -1.7614 H       1  UNL1        0.0292
     26 H          -0.2355    1.5688   -1.2986 H       1  UNL1        0.1657
     27 H           1.5558    1.2919    0.2597 H       1  UNL1        0.1552
     28 H           3.4111   -1.8833   -0.5807 H       1  UNL1        0.0637
     29 H           5.8693   -1.9115   -0.6743 H       1  UNL1        0.0633
     30 H           7.1292    0.1979   -0.2227 H       1  UNL1        0.0829
     31 H           3.6646    2.3084    0.4131 H       1  UNL1        0.0848
     32 H          -0.5360   -2.1646    1.7578 H       1  UNL1        0.0278
     33 H          -2.0969   -1.6905    2.3922 H       1  UNL1        0.0278
     34 H          -2.0028   -2.7059    0.9294 H       1  UNL1        0.0278
@<TRIPOS>BOND
     1     1     2    1
     2     2     3    2
     3     2     4    1
     4     4     5   ar
     5     5     6    1
     6     5     7   ar
     7     7     8   ar
     8     8     9    1
     9     9    10    2
    10     9    11   am
    11    11    12    1
    12    12    13   ar
    13    13    14   ar
    14    14    15   ar
    15    15    16   ar
    16    16    17   ar
    17     8    18   ar
    18    18    19    1
    19    18     4   ar
    20    17    12   ar
    21     1    20    1
    22     1    21    1
    23     1    22    1
    24     6    23    1
    25     6    24    1
    26     6    25    1
    27     7    26    1
    28    11    27    1
    29    13    28    1
    30    14    29    1
    31    15    30    1
    32    17    31    1
    33    19    32    1
    34    19    33    1
    35    19    34    1
