@<TRIPOS>MOLECULE
*****
 39 43 0 0 0
SMALL
GASTEIGER

@<TRIPOS>ATOM
      1 C           4.5605   -0.5654    3.1541 C.3     1  UNL1       -0.0009
      2 C           5.3046   -1.2177    2.0117 C.2     1  UNL1        0.1667
      3 O           6.4870   -1.5276    2.1656 O.2     1  UNL1       -0.2918
      4 C           4.5512   -1.4380    0.7742 C.ar    1  UNL1        0.0554
      5 C           3.2123   -1.1006    0.4987 C.ar    1  UNL1       -0.0353
      6 C           2.7944   -1.4634   -0.8128 C.ar    1  UNL1        0.0051
      7 C           3.8617   -2.0786   -1.4614 C.ar    1  UNL1        0.0276
      8 C           3.5236   -2.4731   -2.7233 C.ar    1  UNL1       -0.0094
      9 S           1.8838   -2.0670   -3.0584 S.2     1  UNL1       -0.0944
     10 C           1.6299   -1.3557   -1.5029 C.ar    1  UNL1        0.0342
     11 C           0.3826   -0.7562   -1.1135 C.ar    1  UNL1        0.0277
     12 C           0.2106    0.4569   -0.4855 C.ar    1  UNL1       -0.0384
     13 C          -1.1661    0.7839   -0.2002 C.ar    1  UNL1       -0.0060
     14 C          -2.0146   -0.2322   -0.6363 C.ar    1  UNL1        0.0237
     15 S          -1.1147   -1.5180   -1.3698 S.2     1  UNL1       -0.0874
     16 C          -3.4178   -0.1638   -0.4734 C.ar    1  UNL1       -0.0279
     17 C          -4.2844   -1.3007   -0.9731 C.3     1  UNL1       -0.0380
     18 C          -3.9847    0.9735    0.1560 C.ar    1  UNL1       -0.0066
     19 C          -5.3613    1.2954    0.4470 C.ar    1  UNL1       -0.0467
     20 C          -5.5218    2.5039    1.0773 C.ar    1  UNL1       -0.0232
     21 S          -4.0345    3.2772    1.3342 S.2     1  UNL1       -0.0964
     22 C          -3.1350    1.9913    0.5917 C.ar    1  UNL1        0.0231
     23 C          -1.7323    1.9250    0.4228 C.ar    1  UNL1       -0.0279
     24 C          -0.8661    3.0644    0.9173 C.3     1  UNL1       -0.0380
     25 S           5.4033   -2.2297   -0.5567 S.2     1  UNL1       -0.0848
     26 H           4.2286    0.4353    2.8645 H       1  UNL1        0.0309
     27 H           3.7065   -1.1817    3.4482 H       1  UNL1        0.0309
     28 H           5.2271   -0.4701    4.0168 H       1  UNL1        0.0309
     29 H           2.5659   -0.6201    1.2235 H       1  UNL1        0.0636
     30 H           4.1564   -2.9728   -3.4440 H       1  UNL1        0.0705
     31 H           1.0441    1.1042   -0.2438 H       1  UNL1        0.0635
     32 H          -4.0009   -2.2353   -0.4784 H       1  UNL1        0.0278
     33 H          -5.3466   -1.1390   -0.7775 H       1  UNL1        0.0278
     34 H          -4.1647   -1.4151   -2.0554 H       1  UNL1        0.0278
     35 H          -6.2039    0.6612    0.2024 H       1  UNL1        0.0629
     36 H          -6.4455    2.9656    1.3980 H       1  UNL1        0.0694
     37 H          -1.1877    4.0085    0.4652 H       1  UNL1        0.0278
     38 H          -0.9403    3.1436    2.0069 H       1  UNL1        0.0278
     39 H           0.1886    2.9318    0.6663 H       1  UNL1        0.0278
@<TRIPOS>BOND
     1     1     2    1
     2     2     3    2
     3     2     4    1
     4     4     5   ar
     5     5     6   ar
     6     6     7   ar
     7     7     8   ar
     8     8     9   ar
     9     9    10   ar
    10    10    11    1
    11    11    12   ar
    12    12    13   ar
    13    13    14   ar
    14    14    15   ar
    15    14    16   ar
    16    16    17    1
    17    16    18   ar
    18    18    19   ar
    19    19    20   ar
    20    20    21   ar
    21    21    22   ar
    22    22    23   ar
    23    23    24    1
    24     7    25   ar
    25    25     4   ar
    26    10     6   ar
    27    15    11   ar
    28    22    18   ar
    29    23    13   ar
    30     1    26    1
    31     1    27    1
    32     1    28    1
    33     5    29    1
    34     8    30    1
    35    12    31    1
    36    17    32    1
    37    17    33    1
    38    17    34    1
    39    19    35    1
    40    20    36    1
    41    24    37    1
    42    24    38    1
    43    24    39    1
