@<TRIPOS>MOLECULE
*****
 39 43 0 0 0
SMALL
GASTEIGER

@<TRIPOS>ATOM
      1 C           5.4431   -2.3632    0.2111 C.3     1  UNL1       -0.0009
      2 C           6.0568   -1.0362   -0.1719 C.2     1  UNL1        0.1667
      3 O           7.2783   -0.9597   -0.3147 O.2     1  UNL1       -0.2918
      4 C           5.1363    0.0895   -0.3518 C.ar    1  UNL1        0.0554
      5 C           3.7337    0.0928   -0.2315 C.ar    1  UNL1       -0.0353
      6 C           3.1416    1.3679   -0.4654 C.ar    1  UNL1        0.0051
      7 C           4.1599    2.2674   -0.7754 C.ar    1  UNL1        0.0276
      8 C           3.6711    3.5136   -1.0381 C.ar    1  UNL1       -0.0094
      9 S           1.9568    3.5244   -0.9016 S.2     1  UNL1       -0.0944
     10 C           1.8698    1.8483   -0.4711 C.ar    1  UNL1        0.0342
     11 C           0.6095    1.2089   -0.1925 C.ar    1  UNL1        0.0277
     12 C          -0.6040    1.4287   -0.8221 C.ar    1  UNL1       -0.0384
     13 C          -1.6845    0.6332   -0.2994 C.ar    1  UNL1       -0.0059
     14 C          -1.2109   -0.1556    0.7270 C.ar    1  UNL1        0.0345
     15 S           0.4376    0.0469    1.0525 S.2     1  UNL1       -0.0866
     16 C          -2.1663   -1.1279    1.4825 C.ar    1  UNL1        0.0339
     17 S          -1.7153   -2.1520    2.7576 S.2     1  UNL1       -0.0955
     18 C          -3.3061   -2.7548    2.8983 C.ar    1  UNL1       -0.0231
     19 C          -4.1544   -2.1742    1.9796 C.ar    1  UNL1       -0.0467
     20 C          -3.4996   -1.2104    1.1337 C.ar    1  UNL1       -0.0066
     21 C          -3.9627   -0.3805    0.0677 C.ar    1  UNL1       -0.0387
     22 C          -5.4181   -0.4270   -0.3589 C.3     1  UNL1       -0.0388
     23 C          -3.0675    0.5292   -0.6391 C.ar    1  UNL1       -0.0387
     24 C          -3.6454    1.3747   -1.7587 C.3     1  UNL1       -0.0388
     25 S           5.8448    1.6499   -0.7762 S.2     1  UNL1       -0.0848
     26 H           6.2335   -3.1115    0.3253 H       1  UNL1        0.0309
     27 H           4.7604   -2.7023   -0.5726 H       1  UNL1        0.0309
     28 H           4.9163   -2.2735    1.1651 H       1  UNL1        0.0309
     29 H           3.1681   -0.7979    0.0135 H       1  UNL1        0.0636
     30 H           4.2391    4.3952   -1.3024 H       1  UNL1        0.0705
     31 H          -0.7165    2.1317   -1.6382 H       1  UNL1        0.0635
     32 H          -3.5451   -3.5017    3.6430 H       1  UNL1        0.0694
     33 H          -5.2038   -2.4327    1.9195 H       1  UNL1        0.0629
     34 H          -5.4972   -0.7366   -1.4056 H       1  UNL1        0.0278
     35 H          -5.9990   -1.1399    0.2319 H       1  UNL1        0.0278
     36 H          -5.8836    0.5548   -0.2276 H       1  UNL1        0.0278
     37 H          -4.0472    0.7338   -2.5496 H       1  UNL1        0.0278
     38 H          -2.8934    2.0205   -2.2193 H       1  UNL1        0.0278
     39 H          -4.4360    2.0259   -1.3732 H       1  UNL1        0.0278
@<TRIPOS>BOND
     1     1     2    1
     2     2     3    2
     3     2     4    1
     4     4     5   ar
     5     5     6   ar
     6     6     7   ar
     7     7     8   ar
     8     8     9   ar
     9     9    10   ar
    10    10    11    1
    11    11    12   ar
    12    12    13   ar
    13    13    14   ar
    14    14    15   ar
    15    14    16   ar
    16    16    17   ar
    17    17    18   ar
    18    18    19   ar
    19    19    20   ar
    20    20    21   ar
    21    21    22    1
    22    21    23   ar
    23    23    24    1
    24     7    25   ar
    25    25     4   ar
    26    10     6   ar
    27    15    11   ar
    28    20    16   ar
    29    23    13   ar
    30     1    26    1
    31     1    27    1
    32     1    28    1
    33     5    29    1
    34     8    30    1
    35    12    31    1
    36    18    32    1
    37    19    33    1
    38    22    34    1
    39    22    35    1
    40    22    36    1
    41    24    37    1
    42    24    38    1
    43    24    39    1
