@<TRIPOS>MOLECULE
*****
 39 40 0 0 0
SMALL
GASTEIGER

@<TRIPOS>ATOM
      1 C           6.9843    0.4707    1.6741 C.3     1  UNL1       -0.0014
      2 C           5.7220    1.2205    1.3379 C.2     1  UNL1        0.1601
      3 O           5.5989    2.4132    1.6087 O.2     1  UNL1       -0.2924
      4 C           4.6036    0.4920    0.6682 C.ar    1  UNL1        0.0172
      5 C           4.6603   -0.8767    0.3912 C.ar    1  UNL1       -0.0495
      6 C           3.5815   -1.5108   -0.2382 C.ar    1  UNL1       -0.0398
      7 C           2.4271   -0.7969   -0.5814 C.ar    1  UNL1        0.0326
      8 N           1.3978   -1.5128   -1.2239 N.am    1  UNL1       -0.2969
      9 C           0.0919   -1.2002   -1.4794 C.2     1  UNL1        0.1345
     10 S          -0.6844   -2.0738   -2.6757 S.2     1  UNL1       -0.0186
     11 N          -0.4787   -0.2371   -0.6986 N.am    1  UNL1       -0.3260
     12 C          -1.8581    0.2408   -0.7555 C.3     1  UNL1        0.0147
     13 C          -2.8099   -0.6333    0.0656 C.3     1  UNL1       -0.0121
     14 C          -4.2269   -0.1177    0.0128 C.ar    1  UNL1       -0.0457
     15 C          -5.0687   -0.4783   -1.0509 C.ar    1  UNL1       -0.0558
     16 C          -6.3739    0.0107   -1.1132 C.ar    1  UNL1       -0.0262
     17 C          -6.8352    0.8611   -0.1160 C.ar    1  UNL1        0.1234
     18 F          -8.0882    1.3308   -0.1765 F       1  UNL1       -0.2055
     19 C          -6.0154    1.2335    0.9426 C.ar    1  UNL1       -0.0262
     20 C          -4.7093    0.7462    1.0075 C.ar    1  UNL1       -0.0558
     21 C           2.3868    0.5755   -0.3313 C.ar    1  UNL1       -0.0398
     22 C           3.4629    1.2138    0.2971 C.ar    1  UNL1       -0.0495
     23 H           7.7094    1.1654    2.1098 H       1  UNL1        0.0309
     24 H           6.7755   -0.3099    2.4101 H       1  UNL1        0.0309
     25 H           7.4272    0.0467    0.7691 H       1  UNL1        0.0309
     26 H           5.5272   -1.4764    0.6528 H       1  UNL1        0.0625
     27 H           3.6502   -2.5779   -0.4397 H       1  UNL1        0.0636
     28 H           1.6751   -2.3889   -1.6557 H       1  UNL1        0.1538
     29 H           0.0004   -0.0641    0.1752 H       1  UNL1        0.1477
     30 H          -2.1792    0.3042   -1.8008 H       1  UNL1        0.0465
     31 H          -1.8463    1.2623   -0.3579 H       1  UNL1        0.0465
     32 H          -2.4700   -0.6747    1.1087 H       1  UNL1        0.0328
     33 H          -2.7910   -1.6720   -0.2854 H       1  UNL1        0.0328
     34 H          -4.7104   -1.1424   -1.8357 H       1  UNL1        0.0621
     35 H          -7.0312   -0.2652   -1.9315 H       1  UNL1        0.0646
     36 H          -6.3984    1.8999    1.7086 H       1  UNL1        0.0646
     37 H          -4.0730    1.0430    1.8382 H       1  UNL1        0.0621
     38 H           1.5558    1.1923   -0.6605 H       1  UNL1        0.0636
     39 H           3.4105    2.2865    0.4790 H       1  UNL1        0.0625
@<TRIPOS>BOND
     1     1     2    1
     2     2     3    2
     3     2     4    1
     4     4     5   ar
     5     5     6   ar
     6     6     7   ar
     7     7     8    1
     8     8     9    1
     9     9    10    2
    10     9    11    1
    11    11    12    1
    12    12    13    1
    13    13    14    1
    14    14    15   ar
    15    15    16   ar
    16    16    17   ar
    17    17    18    1
    18    17    19   ar
    19    19    20   ar
    20     7    21   ar
    21    21    22   ar
    22    22     4   ar
    23    20    14   ar
    24     1    23    1
    25     1    24    1
    26     1    25    1
    27     5    26    1
    28     6    27    1
    29     8    28    1
    30    11    29    1
    31    12    30    1
    32    12    31    1
    33    13    32    1
    34    13    33    1
    35    15    34    1
    36    16    35    1
    37    19    36    1
    38    20    37    1
    39    21    38    1
    40    22    39    1
