@<TRIPOS>MOLECULE
*****
 40 42 0 0 0
SMALL
GASTEIGER

@<TRIPOS>ATOM
      1 C           5.7138    0.4170    2.4934 C.3     1  UNL1       -0.0014
      2 C           4.4470    1.1016    2.0499 C.2     1  UNL1        0.1602
      3 O           3.9804    2.0443    2.6856 O.2     1  UNL1       -0.2924
      4 C           3.7624    0.6251    0.8103 C.ar    1  UNL1        0.0191
      5 C           4.3457   -0.3157   -0.0425 C.ar    1  UNL1       -0.0511
      6 C           3.6719   -0.7225   -1.1946 C.ar    1  UNL1       -0.0591
      7 C           2.4097   -0.2033   -1.5023 C.ar    1  UNL1       -0.0361
      8 C           1.8013    0.7273   -0.6533 C.ar    1  UNL1        0.0706
      9 N           0.5162    1.2841   -0.9168 N.ar    1  UNL1       -0.1875
     10 N           0.1052    2.3974   -0.2456 N.ar    1  UNL1       -0.0382
     11 N          -1.0690    2.7376   -0.7520 N.ar    1  UNL1       -0.0218
     12 N          -1.4635    1.8555   -1.7138 N.ar    1  UNL1       -0.1011
     13 C          -0.5116    0.9509   -1.7940 C.ar    1  UNL1        0.2144
     14 S          -0.6732   -0.4607   -2.7845 S.3     1  UNL1       -0.0749
     15 C          -1.1103   -1.7655   -1.5993 C.3     1  UNL1        0.0779
     16 C          -1.5805   -1.2478   -0.2546 C.2     1  UNL1        0.2259
     17 O          -0.7704   -1.1337    0.6697 O.2     1  UNL1       -0.2747
     18 N          -2.9007   -0.8917   -0.1167 N.am    1  UNL1       -0.3008
     19 C          -3.3790   -0.2629    1.1047 C.3     1  UNL1        0.0147
     20 C          -4.7095    0.3664    0.7165 C.3     1  UNL1       -0.0357
     21 C          -5.2125   -0.5534   -0.3886 C.3     1  UNL1       -0.0357
     22 C          -3.9362   -0.9044   -1.1406 C.3     1  UNL1        0.0147
     23 C           2.4977    1.1488    0.4968 C.ar    1  UNL1       -0.0256
     24 H           6.5294    0.6534    1.8047 H       1  UNL1        0.0309
     25 H           5.5618   -0.6634    2.5629 H       1  UNL1        0.0309
     26 H           5.9864    0.7780    3.4902 H       1  UNL1        0.0309
     27 H           5.3269   -0.7368    0.1574 H       1  UNL1        0.0625
     28 H           4.1370   -1.4418   -1.8669 H       1  UNL1        0.0618
     29 H           1.9655   -0.5282   -2.4355 H       1  UNL1        0.0639
     30 H          -0.2189   -2.3809   -1.4262 H       1  UNL1        0.0475
     31 H          -1.8574   -2.4297   -2.0433 H       1  UNL1        0.0475
     32 H          -2.6603    0.4721    1.4820 H       1  UNL1        0.0464
     33 H          -3.5124   -1.0504    1.8547 H       1  UNL1        0.0464
     34 H          -4.5436    1.3729    0.3130 H       1  UNL1        0.0281
     35 H          -5.4020    0.4443    1.5592 H       1  UNL1        0.0281
     36 H          -5.6508   -1.4570    0.0522 H       1  UNL1        0.0281
     37 H          -5.9639   -0.0831   -1.0288 H       1  UNL1        0.0281
     38 H          -3.6952   -0.1395   -1.8849 H       1  UNL1        0.0464
     39 H          -3.9924   -1.8809   -1.6291 H       1  UNL1        0.0464
     40 H           2.0548    1.8769    1.1787 H       1  UNL1        0.0646
@<TRIPOS>BOND
     1     1     2    1
     2     2     3    2
     3     2     4    1
     4     4     5   ar
     5     5     6   ar
     6     6     7   ar
     7     7     8   ar
     8     8     9    1
     9     9    10   ar
    10    10    11   ar
    11    11    12   ar
    12    12    13   ar
    13    13    14    1
    14    14    15    1
    15    15    16    1
    16    16    17    2
    17    16    18   am
    18    18    19    1
    19    19    20    1
    20    20    21    1
    21    21    22    1
    22     8    23   ar
    23    23     4   ar
    24    13     9   ar
    25    22    18    1
    26     1    24    1
    27     1    25    1
    28     1    26    1
    29     5    27    1
    30     6    28    1
    31     7    29    1
    32    15    30    1
    33    15    31    1
    34    19    32    1
    35    19    33    1
    36    20    34    1
    37    20    35    1
    38    21    36    1
    39    21    37    1
    40    22    38    1
    41    22    39    1
    42    23    40    1
