@<TRIPOS>MOLECULE
*****
 32 33 0 0 0
SMALL
GASTEIGER

@<TRIPOS>ATOM
      1 C          -4.4336    0.2990   -1.8537 C.3     1  UNL1        0.0131
      2 C          -2.9198    0.2651   -1.8469 C.2     1  UNL1        0.2231
      3 O          -2.3178    0.5714   -2.8806 O.2     1  UNL1       -0.2751
      4 N          -2.2993   -0.1404   -0.6577 N.am    1  UNL1       -0.2109
      5 C          -3.0188   -0.8859    0.2737 C.2     1  UNL1        0.2231
      6 C          -2.7914   -0.5496    1.7325 C.3     1  UNL1        0.0131
      7 O          -3.8215   -1.7690   -0.0321 O.2     1  UNL1       -0.2751
      8 C          -0.8892    0.1043   -0.4748 C.ar    1  UNL1        0.0447
      9 C          -0.2653    1.2333   -1.0356 C.ar    1  UNL1       -0.0379
     10 C           1.1047    1.4778   -0.8634 C.ar    1  UNL1       -0.0358
     11 C           1.8872    0.5920   -0.1291 C.ar    1  UNL1        0.0531
     12 N           3.2466    0.8048    0.0845 N.ar    1  UNL1       -0.3430
     13 C           3.9703   -0.1205    0.7924 C.ar    1  UNL1        0.1083
     14 C           5.4545    0.1250    0.9226 C.3     1  UNL1       -0.0063
     15 N           3.4867   -1.1855    1.3481 N.ar    1  UNL1       -0.1958
     16 C           2.1372   -1.4417    1.2372 C.ar    1  UNL1        0.2810
     17 O           1.6009   -2.4015    1.7816 O.2     1  UNL1       -0.2651
     18 C           1.2788   -0.5271    0.4386 C.ar    1  UNL1        0.0663
     19 C          -0.0901   -0.7803    0.2639 C.ar    1  UNL1       -0.0255
     20 H          -4.7662    1.0427   -2.5850 H       1  UNL1        0.0323
     21 H          -4.8268   -0.6782   -2.1442 H       1  UNL1        0.0323
     22 H          -4.8330    0.6022   -0.8824 H       1  UNL1        0.0323
     23 H          -2.2357   -1.3546    2.2191 H       1  UNL1        0.0323
     24 H          -2.2641    0.3992    1.8602 H       1  UNL1        0.0323
     25 H          -3.7668   -0.4471    2.2184 H       1  UNL1        0.0323
     26 H          -0.8363    1.9607   -1.6108 H       1  UNL1        0.0637
     27 H           1.5408    2.3660   -1.3139 H       1  UNL1        0.0639
     28 H           3.7077    1.5672   -0.3932 H       1  UNL1        0.1670
     29 H           5.9163   -0.6206    1.5758 H       1  UNL1        0.0307
     30 H           5.9167    0.0696   -0.0671 H       1  UNL1        0.0307
     31 H           5.6244    1.1212    1.3407 H       1  UNL1        0.0307
     32 H          -0.4971   -1.6992    0.6810 H       1  UNL1        0.0644
@<TRIPOS>BOND
     1     1     2    1
     2     2     3    2
     3     2     4   am
     4     4     5   am
     5     5     6    1
     6     5     7    2
     7     4     8    1
     8     8     9   ar
     9     9    10   ar
    10    10    11   ar
    11    11    12   ar
    12    12    13   ar
    13    13    14    1
    14    13    15   ar
    15    15    16   ar
    16    16    17    2
    17    16    18   ar
    18    18    19   ar
    19    19     8   ar
    20    18    11   ar
    21     1    20    1
    22     1    21    1
    23     1    22    1
    24     6    23    1
    25     6    24    1
    26     6    25    1
    27     9    26    1
    28    10    27    1
    29    12    28    1
    30    14    29    1
    31    14    30    1
    32    14    31    1
    33    19    32    1
