@<TRIPOS>MOLECULE
*****
 40 45 0 0 0
SMALL
GASTEIGER

@<TRIPOS>ATOM
      1 SI         -6.6513   -0.8876    1.5225 Si      1  UNL1        0.0000
      2 C          -6.7277   -0.0749   -0.1609 C.2     1  UNL1        0.0000
      3 C          -5.4912    0.1654   -0.6370 C.ar    1  UNL1        0.0000
      4 C          -5.2179    0.7910   -1.9273 C.ar    1  UNL1        0.0000
      5 C          -3.9472    0.9951   -2.3281 C.ar    1  UNL1        0.0000
      6 C          -2.8940    0.5830   -1.4568 C.ar    1  UNL1        0.0000
      7 O          -1.5571    0.7155   -1.7082 O.2     1  UNL1        0.0000
      8 C          -0.8742    0.2050   -0.6392 C.ar    1  UNL1        0.0000
      9 C          -1.7632   -0.2673    0.3234 C.ar    1  UNL1        0.0000
     10 C          -1.2274   -0.8240    1.4855 C.ar    1  UNL1        0.0000
     11 N           0.1189   -0.8972    1.6605 N.ar    1  UNL1        0.0000
     12 C           0.9494   -0.4286    0.7040 C.ar    1  UNL1        0.0000
     13 C           2.3277   -0.4914    0.8532 C.ar    1  UNL1        0.0000
     14 C           3.2070   -0.0078   -0.1345 C.ar    1  UNL1        0.0000
     15 C           2.6234    0.5432   -1.2781 C.ar    1  UNL1        0.0000
     16 N           1.2924    0.6345   -1.4919 N.ar    1  UNL1        0.0000
     17 C           0.5107    0.1472   -0.4959 C.ar    1  UNL1        0.0000
     18 C           4.6663   -0.0788    0.0313 C.ar    1  UNL1        0.0000
     19 C           5.4843   -0.6312   -0.9692 C.ar    1  UNL1        0.0000
     20 C           6.8715   -0.6976   -0.8116 C.ar    1  UNL1        0.0000
     21 C           7.4656   -0.2120    0.3500 C.ar    1  UNL1        0.0000
     22 C           6.6743    0.3385    1.3544 C.ar    1  UNL1        0.0000
     23 C           5.2872    0.4035    1.1962 C.ar    1  UNL1        0.0000
     24 C          -3.0520   -0.0212   -0.2085 C.ar    1  UNL1        0.0000
     25 C          -4.3807   -0.2610    0.2649 C.ar    1  UNL1        0.0000
     26 C          -4.7792   -0.8230    1.4212 C.2     1  UNL1        0.0000
     27 H          -7.1829   -0.0166    2.5974 H       1  UNL1        0.0000
     28 H          -7.1641   -2.2781    1.5049 H       1  UNL1        0.0000
     29 H          -7.6695    0.1472   -0.6371 H       1  UNL1        0.0000
     30 H          -6.0514    1.0874   -2.5552 H       1  UNL1        0.0000
     31 H          -3.7048    1.4561   -3.2780 H       1  UNL1        0.0000
     32 H          -1.8304   -1.2195    2.2938 H       1  UNL1        0.0000
     33 H           2.7243   -0.9416    1.7609 H       1  UNL1        0.0000
     34 H           3.2348    0.9508   -2.0803 H       1  UNL1        0.0000
     35 H           5.0450   -1.0308   -1.8815 H       1  UNL1        0.0000
     36 H           7.4863   -1.1321   -1.5959 H       1  UNL1        0.0000
     37 H           8.5444   -0.2635    0.4729 H       1  UNL1        0.0000
     38 H           7.1350    0.7204    2.2619 H       1  UNL1        0.0000
     39 H           4.6923    0.8485    1.9919 H       1  UNL1        0.0000
     40 H          -4.1746   -1.2061    2.2245 H       1  UNL1        0.0000
@<TRIPOS>BOND
     1     1     2    1
     2     2     3    2
     3     3     4   ar
     4     4     5   ar
     5     5     6   ar
     6     6     7   ar
     7     7     8   ar
     8     8     9   ar
     9     9    10   ar
    10    10    11   ar
    11    11    12   ar
    12    12    13   ar
    13    13    14   ar
    14    14    15   ar
    15    15    16   ar
    16    16    17   ar
    17    14    18    1
    18    18    19   ar
    19    19    20   ar
    20    20    21   ar
    21    21    22   ar
    22    22    23   ar
    23     9    24   ar
    24    24    25   ar
    25    25    26    2
    26    26     1    1
    27    25     3   ar
    28    24     6   ar
    29    17     8   ar
    30    23    18   ar
    31    17    12   ar
    32     1    27    1
    33     1    28    1
    34     2    29    1
    35     4    30    1
    36     5    31    1
    37    10    32    1
    38    13    33    1
    39    15    34    1
    40    19    35    1
    41    20    36    1
    42    21    37    1
    43    22    38    1
    44    23    39    1
    45    26    40    1
