@<TRIPOS>MOLECULE
*****
 30 31 0 0 0
SMALL
GASTEIGER

@<TRIPOS>ATOM
      1 C           0.4982    3.0028    0.4638 C.3     1  UNL1        0.0131
      2 C          -0.5844    2.1034   -0.0895 C.2     1  UNL1        0.2225
      3 O          -1.5191    2.5924   -0.7308 O.2     1  UNL1       -0.2752
      4 N          -0.4392    0.7332    0.1717 N.am    1  UNL1       -0.2180
      5 C           0.8058    0.1073    0.0311 C.2     1  UNL1        0.1627
      6 N           1.7408    0.6833   -0.6286 N.2     1  UNL1       -0.2628
      7 C           3.0692    0.1331   -0.8260 C.3     1  UNL1        0.0430
      8 C           3.5459   -0.7053    0.3397 C.3     1  UNL1       -0.0239
      9 C           2.6490   -1.9114    0.4924 C.3     1  UNL1        0.0026
     10 S           0.9686   -1.4171    0.8944 S.3     1  UNL1       -0.0900
     11 C          -1.6578   -0.0333    0.0948 C.ar    1  UNL1        0.0614
     12 C          -1.7962   -1.0434   -0.8748 C.ar    1  UNL1       -0.0384
     13 C          -2.9867   -1.7657   -0.9886 C.ar    1  UNL1       -0.0599
     14 C          -4.0552   -1.4899   -0.1394 C.ar    1  UNL1       -0.0603
     15 C          -3.9351   -0.4934    0.8288 C.ar    1  UNL1       -0.0416
     16 C          -2.7458    0.2340    0.9484 C.ar    1  UNL1        0.0627
     17 CL         -2.6438    1.3773    2.2457 Cl      1  UNL1       -0.0816
     18 H           1.0460    2.5237    1.2798 H       1  UNL1        0.0323
     19 H           1.1861    3.2903   -0.3350 H       1  UNL1        0.0323
     20 H           0.0283    3.9032    0.8716 H       1  UNL1        0.0323
     21 H           3.7654    0.9687   -0.9599 H       1  UNL1        0.0509
     22 H           3.0910   -0.4423   -1.7590 H       1  UNL1        0.0509
     23 H           4.5721   -1.0398    0.1481 H       1  UNL1        0.0291
     24 H           3.5706   -0.1130    1.2630 H       1  UNL1        0.0291
     25 H           3.0212   -2.5596    1.2920 H       1  UNL1        0.0381
     26 H           2.6340   -2.5046   -0.4284 H       1  UNL1        0.0381
     27 H          -0.9933   -1.2549   -1.5774 H       1  UNL1        0.0637
     28 H          -3.0828   -2.5364   -1.7500 H       1  UNL1        0.0618
     29 H          -4.9826   -2.0503   -0.2304 H       1  UNL1        0.0618
     30 H          -4.7704   -0.2923    1.4951 H       1  UNL1        0.0633
@<TRIPOS>BOND
     1     1     2    1
     2     2     3    2
     3     2     4   am
     4     4     5    1
     5     5     6    2
     6     6     7    1
     7     7     8    1
     8     8     9    1
     9     9    10    1
    10     4    11    1
    11    11    12   ar
    12    12    13   ar
    13    13    14   ar
    14    14    15   ar
    15    15    16   ar
    16    16    17    1
    17    10     5    1
    18    16    11   ar
    19     1    18    1
    20     1    19    1
    21     1    20    1
    22     7    21    1
    23     7    22    1
    24     8    23    1
    25     8    24    1
    26     9    25    1
    27     9    26    1
    28    12    27    1
    29    13    28    1
    30    14    29    1
    31    15    30    1
