@<TRIPOS>MOLECULE
*****
 26 27 0 0 0
SMALL
GASTEIGER

@<TRIPOS>ATOM
      1 C          -4.5025    0.9966    0.7534 C.3     1  UNL1        0.0122
      2 C          -3.2759    1.1372   -0.1075 C.2     1  UNL1        0.2102
      3 O          -3.2295    1.9250   -1.0473 O.2     1  UNL1       -0.2761
      4 N          -2.2299    0.3228    0.2742 N.am    1  UNL1       -0.3121
      5 C          -0.9590    0.3649   -0.3825 C.3     1  UNL1        0.0305
      6 C          -0.7054   -0.4671   -1.6093 C.3     1  UNL1       -0.0254
      7 C          -0.0157   -0.8190   -0.3170 C.3     1  UNL1        0.0043
      8 C           1.4761   -0.6100   -0.1215 C.ar    1  UNL1       -0.0425
      9 C           2.2112    0.4095   -0.7543 C.ar    1  UNL1       -0.0582
     10 C           3.5852    0.5679   -0.5440 C.ar    1  UNL1       -0.0615
     11 C           4.2637   -0.2946    0.3098 C.ar    1  UNL1       -0.0617
     12 C           3.5681   -1.3129    0.9513 C.ar    1  UNL1       -0.0615
     13 C           2.1946   -1.4645    0.7360 C.ar    1  UNL1       -0.0582
     14 H          -4.5643    1.8520    1.4311 H       1  UNL1        0.0322
     15 H          -5.3882    0.9687    0.1124 H       1  UNL1        0.0322
     16 H          -4.4790    0.0749    1.3414 H       1  UNL1        0.0322
     17 H          -2.3027   -0.1998    1.1383 H       1  UNL1        0.1490
     18 H          -0.5245    1.3621   -0.3736 H       1  UNL1        0.0504
     19 H          -0.1422   -0.0163   -2.4172 H       1  UNL1        0.0290
     20 H          -1.4987   -1.1198   -1.9564 H       1  UNL1        0.0290
     21 H          -0.4129   -1.7116    0.1658 H       1  UNL1        0.0367
     22 H           1.7132    1.1034   -1.4278 H       1  UNL1        0.0620
     23 H           4.1212    1.3669   -1.0497 H       1  UNL1        0.0618
     24 H           5.3309   -0.1733    0.4738 H       1  UNL1        0.0618
     25 H           4.0908   -1.9922    1.6195 H       1  UNL1        0.0618
     26 H           1.6752   -2.2708    1.2500 H       1  UNL1        0.0620
@<TRIPOS>BOND
     1     1     2    1
     2     2     3    2
     3     2     4   am
     4     4     5    1
     5     5     6    1
     6     6     7    1
     7     7     8    1
     8     8     9   ar
     9     9    10   ar
    10    10    11   ar
    11    11    12   ar
    12    12    13   ar
    13     7     5    1
    14    13     8   ar
    15     1    14    1
    16     1    15    1
    17     1    16    1
    18     4    17    1
    19     5    18    1
    20     6    19    1
    21     6    20    1
    22     7    21    1
    23     9    22    1
    24    10    23    1
    25    11    24    1
    26    12    25    1
    27    13    26    1
