@<TRIPOS>MOLECULE
*****
 38 39 0 0 0
SMALL
GASTEIGER

@<TRIPOS>ATOM
      1 C           7.0482   -0.2931   -0.1902 C.3     1  UNL1        0.0125
      2 C           5.6359   -0.8060   -0.3274 C.2     1  UNL1        0.2141
      3 O           5.4194   -1.9349   -0.7524 O.2     1  UNL1       -0.2758
      4 N           4.6983    0.1408    0.0440 N.am    1  UNL1       -0.2857
      5 C           3.2951    0.0047    0.0426 C.ar    1  UNL1        0.0335
      6 C           2.5419    1.1118    0.4416 C.ar    1  UNL1       -0.0387
      7 C           1.1401    1.0588    0.4682 C.ar    1  UNL1       -0.0389
      8 C           0.4458   -0.0959    0.0895 C.ar    1  UNL1        0.0299
      9 N          -0.9536   -0.2056    0.1034 N.pl3   1  UNL1       -0.3269
     10 C          -1.7219    0.8060    0.8553 C.3     1  UNL1        0.0280
     11 C          -3.1936    0.3743    0.9984 C.3     1  UNL1        0.0304
     12 N          -3.8093    0.0198   -0.2875 N.am    1  UNL1       -0.2987
     13 C          -5.1783    0.0584   -0.5168 C.2     1  UNL1        0.2126
     14 C          -6.0165    0.8489    0.4556 C.3     1  UNL1        0.0124
     15 O          -5.7089   -0.5034   -1.4752 O.2     1  UNL1       -0.2759
     16 C          -3.0114   -0.8917   -1.1167 C.3     1  UNL1        0.0304
     17 C          -1.5360   -0.4706   -1.2372 C.3     1  UNL1        0.0280
     18 C           1.2205   -1.2016   -0.2938 C.ar    1  UNL1       -0.0389
     19 C           2.6220   -1.1563   -0.3217 C.ar    1  UNL1       -0.0387
     20 H           7.3159    0.2738   -1.0857 H       1  UNL1        0.0323
     21 H           7.1497    0.3440    0.6931 H       1  UNL1        0.0323
     22 H           7.7322   -1.1392   -0.0773 H       1  UNL1        0.0323
     23 H           5.0537    1.0404    0.3407 H       1  UNL1        0.1548
     24 H           3.0271    2.0379    0.7378 H       1  UNL1        0.0637
     25 H           0.6112    1.9549    0.7766 H       1  UNL1        0.0637
     26 H          -1.3073    0.9368    1.8621 H       1  UNL1        0.0479
     27 H          -1.6833    1.7711    0.3336 H       1  UNL1        0.0479
     28 H          -3.2659   -0.5135    1.6387 H       1  UNL1        0.0480
     29 H          -3.7515    1.1775    1.4866 H       1  UNL1        0.0480
     30 H          -5.9772    0.3920    1.4477 H       1  UNL1        0.0323
     31 H          -7.0581    0.8473    0.1197 H       1  UNL1        0.0323
     32 H          -5.6746    1.8865    0.4931 H       1  UNL1        0.0323
     33 H          -3.0788   -1.8826   -0.6502 H       1  UNL1        0.0480
     34 H          -3.4462   -0.9714   -2.1190 H       1  UNL1        0.0480
     35 H          -1.4655    0.4403   -1.8463 H       1  UNL1        0.0479
     36 H          -1.0028   -1.2665   -1.7691 H       1  UNL1        0.0479
     37 H           0.7343   -2.1388   -0.5555 H       1  UNL1        0.0637
     38 H           3.1497   -2.0546   -0.6255 H       1  UNL1        0.0637
@<TRIPOS>BOND
     1     1     2    1
     2     2     3    2
     3     2     4   am
     4     4     5    1
     5     5     6   ar
     6     6     7   ar
     7     7     8   ar
     8     8     9    1
     9     9    10    1
    10    10    11    1
    11    11    12    1
    12    12    13   am
    13    13    14    1
    14    13    15    2
    15    12    16    1
    16    16    17    1
    17     8    18   ar
    18    18    19   ar
    19    19     5   ar
    20    17     9    1
    21     1    20    1
    22     1    21    1
    23     1    22    1
    24     4    23    1
    25     6    24    1
    26     7    25    1
    27    10    26    1
    28    10    27    1
    29    11    28    1
    30    11    29    1
    31    14    30    1
    32    14    31    1
    33    14    32    1
    34    16    33    1
    35    16    34    1
    36    17    35    1
    37    17    36    1
    38    18    37    1
    39    19    38    1
