@<TRIPOS>MOLECULE
*****
 40 41 0 0 0
SMALL
GASTEIGER

@<TRIPOS>ATOM
      1 C           6.0380   -0.4641    2.5239 C.3     1  UNL1        0.0125
      2 C           5.1479    0.1604    1.4781 C.2     1  UNL1        0.2141
      3 O           5.2572    1.3468    1.1903 O.2     1  UNL1       -0.2758
      4 N           4.2332   -0.7399    0.9618 N.am    1  UNL1       -0.2857
      5 C           3.2653   -0.5024   -0.0357 C.ar    1  UNL1        0.0335
      6 C           2.4076   -1.5644   -0.3586 C.ar    1  UNL1       -0.0386
      7 C           1.4181   -1.4142   -1.3345 C.ar    1  UNL1       -0.0336
      8 C           1.2823   -0.1903   -1.9902 C.ar    1  UNL1        0.1054
      9 S           0.0342    0.0198   -3.2357 S.O2    1  UNL1        0.0584
     10 O           0.5764    0.8766   -4.2660 O.2     1  UNL1       -0.1531
     11 O          -0.5290   -1.2776   -3.5363 O.2     1  UNL1       -0.1531
     12 N          -1.1324    0.9181   -2.4331 N.3     1  UNL1       -0.1896
     13 C          -1.7428    0.3868   -1.2103 C.3     1  UNL1        0.0214
     14 C          -3.1551    0.9543   -1.0580 C.3     1  UNL1       -0.0135
     15 C          -3.8201    0.4568    0.2006 C.ar    1  UNL1       -0.0461
     16 C          -4.5344   -0.7490    0.1949 C.ar    1  UNL1       -0.0585
     17 C          -5.1303   -1.2226    1.3646 C.ar    1  UNL1       -0.0615
     18 C          -5.0150   -0.4984    2.5496 C.ar    1  UNL1       -0.0617
     19 C          -4.3032    0.6996    2.5666 C.ar    1  UNL1       -0.0615
     20 C          -3.7061    1.1754    1.3982 C.ar    1  UNL1       -0.0585
     21 C           2.1405    0.8700   -1.6953 C.ar    1  UNL1       -0.0336
     22 C           3.1259    0.7116   -0.7147 C.ar    1  UNL1       -0.0386
     23 H           6.9803    0.0891    2.5752 H       1  UNL1        0.0323
     24 H           5.5383   -0.4232    3.4952 H       1  UNL1        0.0323
     25 H           6.2696   -1.5033    2.2731 H       1  UNL1        0.0323
     26 H           4.2443   -1.6725    1.3554 H       1  UNL1        0.1548
     27 H           2.4968   -2.5249    0.1434 H       1  UNL1        0.0637
     28 H           0.7651   -2.2508   -1.5742 H       1  UNL1        0.0638
     29 H          -1.0143    1.9253   -2.5285 H       1  UNL1        0.1480
     30 H          -1.7879   -0.7072   -1.2438 H       1  UNL1        0.0444
     31 H          -1.1255    0.6754   -0.3521 H       1  UNL1        0.0444
     32 H          -3.7673    0.6854   -1.9288 H       1  UNL1        0.0326
     33 H          -3.1243    2.0517   -1.0488 H       1  UNL1        0.0326
     34 H          -4.6328   -1.3267   -0.7221 H       1  UNL1        0.0620
     35 H          -5.6861   -2.1566    1.3505 H       1  UNL1        0.0618
     36 H          -5.4813   -0.8671    3.4594 H       1  UNL1        0.0618
     37 H          -4.2143    1.2646    3.4910 H       1  UNL1        0.0618
     38 H          -3.1543    2.1122    1.4299 H       1  UNL1        0.0620
     39 H           2.0578    1.8178   -2.2227 H       1  UNL1        0.0638
     40 H           3.7778    1.5564   -0.5124 H       1  UNL1        0.0637
@<TRIPOS>BOND
     1     1     2    1
     2     2     3    2
     3     2     4   am
     4     4     5    1
     5     5     6   ar
     6     6     7   ar
     7     7     8   ar
     8     8     9    1
     9     9    10    2
    10     9    11    2
    11     9    12    1
    12    12    13    1
    13    13    14    1
    14    14    15    1
    15    15    16   ar
    16    16    17   ar
    17    17    18   ar
    18    18    19   ar
    19    19    20   ar
    20     8    21   ar
    21    21    22   ar
    22    22     5   ar
    23    20    15   ar
    24     1    23    1
    25     1    24    1
    26     1    25    1
    27     4    26    1
    28     6    27    1
    29     7    28    1
    30    12    29    1
    31    13    30    1
    32    13    31    1
    33    14    32    1
    34    14    33    1
    35    16    34    1
    36    17    35    1
    37    18    36    1
    38    19    37    1
    39    20    38    1
    40    21    39    1
    41    22    40    1
