@<TRIPOS>MOLECULE
*****
 39 41 0 0 0
SMALL
GASTEIGER

@<TRIPOS>ATOM
      1 C           8.4016   -0.2742   -0.6497 C.3     1  UNL1        0.0125
      2 C           6.9168   -0.5120   -0.7737 C.2     1  UNL1        0.2141
      3 O           6.4843   -1.4000   -1.4989 O.2     1  UNL1       -0.2758
      4 N           6.1791    0.3436    0.0248 N.am    1  UNL1       -0.2857
      5 C           4.7751    0.3970    0.1609 C.ar    1  UNL1        0.0346
      6 C           4.2652    1.3484    1.0505 C.ar    1  UNL1       -0.0384
      7 C           2.8863    1.4837    1.2584 C.ar    1  UNL1       -0.0334
      8 C           1.9923    0.6505    0.5618 C.ar    1  UNL1        0.0804
      9 N           0.6121    0.6709    0.6658 N.ar    1  UNL1       -0.2246
     10 C           0.0979   -0.2405   -0.1244 C.ar    1  UNL1        0.1655
     11 N          -1.2571   -0.4164   -0.2000 N.am    1  UNL1       -0.2618
     12 C          -1.9536   -1.3209   -0.9668 C.2     1  UNL1        0.2563
     13 O          -1.4885   -2.1557   -1.7375 O.2     1  UNL1       -0.2717
     14 C          -3.4703   -1.2084   -0.7809 C.3     1  UNL1        0.1655
     15 O          -3.8030   -0.1858    0.1550 O.3     1  UNL1       -0.4828
     16 C          -5.1328    0.0213    0.3984 C.ar    1  UNL1        0.1212
     17 C          -5.4062    1.0432    1.3121 C.ar    1  UNL1       -0.0199
     18 C          -6.7223    1.3601    1.6519 C.ar    1  UNL1       -0.0583
     19 C          -7.7762    0.6542    1.0775 C.ar    1  UNL1       -0.0615
     20 C          -7.5113   -0.3662    0.1659 C.ar    1  UNL1       -0.0583
     21 C          -6.1925   -0.6840   -0.1742 C.ar    1  UNL1       -0.0199
     22 S           1.2033   -1.1631   -1.0272 S.2     1  UNL1       -0.0520
     23 C           2.5118   -0.2937   -0.3229 C.ar    1  UNL1        0.0425
     24 C           3.8961   -0.4379   -0.5389 C.ar    1  UNL1       -0.0246
     25 H           8.6201    0.7867   -0.4972 H       1  UNL1        0.0323
     26 H           8.7909   -0.8533    0.1915 H       1  UNL1        0.0323
     27 H           8.8972   -0.5914   -1.5718 H       1  UNL1        0.0323
     28 H           6.7039    1.0030    0.5855 H       1  UNL1        0.1548
     29 H           4.9309    2.0069    1.6039 H       1  UNL1        0.0637
     30 H           2.4997    2.2241    1.9517 H       1  UNL1        0.0640
     31 H          -1.7936    0.2064    0.3932 H       1  UNL1        0.1568
     32 H          -3.8959   -0.9746   -1.7637 H       1  UNL1        0.0795
     33 H          -3.8214   -2.1811   -0.4174 H       1  UNL1        0.0795
     34 H          -4.5889    1.5987    1.7654 H       1  UNL1        0.0654
     35 H          -6.9229    2.1562    2.3641 H       1  UNL1        0.0619
     36 H          -8.8025    0.8982    1.3396 H       1  UNL1        0.0618
     37 H          -8.3342   -0.9179   -0.2822 H       1  UNL1        0.0619
     38 H          -6.0334   -1.4870   -0.8863 H       1  UNL1        0.0654
     39 H           4.2421   -1.1891   -1.2402 H       1  UNL1        0.0648
@<TRIPOS>BOND
     1     1     2    1
     2     2     3    2
     3     2     4   am
     4     4     5    1
     5     5     6   ar
     6     6     7   ar
     7     7     8   ar
     8     8     9   ar
     9     9    10   ar
    10    10    11    1
    11    11    12   am
    12    12    13    2
    13    12    14    1
    14    14    15    1
    15    15    16    1
    16    16    17   ar
    17    17    18   ar
    18    18    19   ar
    19    19    20   ar
    20    20    21   ar
    21    10    22   ar
    22    22    23   ar
    23    23    24   ar
    24    24     5   ar
    25    23     8   ar
    26    21    16   ar
    27     1    25    1
    28     1    26    1
    29     1    27    1
    30     4    28    1
    31     6    29    1
    32     7    30    1
    33    11    31    1
    34    14    32    1
    35    14    33    1
    36    17    34    1
    37    18    35    1
    38    19    36    1
    39    20    37    1
    40    21    38    1
    41    24    39    1
