@<TRIPOS>MOLECULE
*****
 32 33 0 0 0
SMALL
GASTEIGER

@<TRIPOS>ATOM
      1 C          -5.1826   -2.0248    0.1262 C.3     1  UNL1        0.0125
      2 C          -4.6094   -0.6661   -0.1928 C.2     1  UNL1        0.2141
      3 O          -5.3204    0.2229   -0.6462 O.2     1  UNL1       -0.2758
      4 N          -3.2489   -0.6000    0.0543 N.am    1  UNL1       -0.2857
      5 C          -2.4007    0.5158   -0.1118 C.ar    1  UNL1        0.0341
      6 C          -2.8425    1.7767   -0.5205 C.ar    1  UNL1       -0.0404
      7 C          -1.9469    2.8455   -0.6352 C.ar    1  UNL1       -0.0593
      8 C          -0.5962    2.6613   -0.3527 C.ar    1  UNL1       -0.0495
      9 C          -0.1381    1.3997    0.0321 C.ar    1  UNL1        0.0388
     10 C           1.3100    1.2262    0.3223 C.2     1  UNL1        0.2483
     11 O           1.8942    2.1182    0.9231 O.2     1  UNL1       -0.2699
     12 N           1.8565    0.0541   -0.1668 N.am    1  UNL1       -0.2802
     13 C           3.1857   -0.3943   -0.0045 C.ar    1  UNL1        0.0519
     14 C           4.1453    0.2467    0.7739 C.ar    1  UNL1       -0.0376
     15 C           5.4302   -0.2895    0.8728 C.ar    1  UNL1       -0.0418
     16 C           5.7155   -1.4593    0.1891 C.ar    1  UNL1        0.0277
     17 N           4.8164   -2.1162   -0.5721 N.ar    1  UNL1       -0.2614
     18 C           3.5802   -1.5673   -0.6496 C.ar    1  UNL1        0.0487
     19 C          -1.0396    0.3328    0.1672 C.ar    1  UNL1       -0.0284
     20 H          -5.0296   -2.6914   -0.7265 H       1  UNL1        0.0323
     21 H          -4.7096   -2.4503    1.0159 H       1  UNL1        0.0323
     22 H          -6.2538   -1.9290    0.3257 H       1  UNL1        0.0323
     23 H          -2.8124   -1.4489    0.3910 H       1  UNL1        0.1548
     24 H          -3.8874    1.9713   -0.7444 H       1  UNL1        0.0636
     25 H          -2.3114    3.8240   -0.9400 H       1  UNL1        0.0618
     26 H           0.0957    3.4972   -0.4341 H       1  UNL1        0.0625
     27 H           1.2700   -0.5101   -0.7689 H       1  UNL1        0.1552
     28 H           3.9277    1.1604    1.3174 H       1  UNL1        0.0637
     29 H           6.1891    0.1999    1.4735 H       1  UNL1        0.0633
     30 H           6.7024   -1.9104    0.2385 H       1  UNL1        0.0829
     31 H           2.8912   -2.1273   -1.2752 H       1  UNL1        0.0848
     32 H          -0.6807   -0.6305    0.5184 H       1  UNL1        0.0644
@<TRIPOS>BOND
     1     1     2    1
     2     2     3    2
     3     2     4   am
     4     4     5    1
     5     5     6   ar
     6     6     7   ar
     7     7     8   ar
     8     8     9   ar
     9     9    10    1
    10    10    11    2
    11    10    12   am
    12    12    13    1
    13    13    14   ar
    14    14    15   ar
    15    15    16   ar
    16    16    17   ar
    17    17    18   ar
    18     9    19   ar
    19    19     5   ar
    20    18    13   ar
    21     1    20    1
    22     1    21    1
    23     1    22    1
    24     4    23    1
    25     6    24    1
    26     7    25    1
    27     8    26    1
    28    12    27    1
    29    14    28    1
    30    15    29    1
    31    16    30    1
    32    18    31    1
    33    19    32    1
