@<TRIPOS>MOLECULE
*****
 35 36 0 0 0
SMALL
GASTEIGER

@<TRIPOS>ATOM
      1 C          -6.1798    0.8265   -1.5891 C.3     1  UNL1        0.0125
      2 C          -4.7397    0.4149   -1.4077 C.2     1  UNL1        0.2141
      3 O          -4.0591    0.0795   -2.3694 O.2     1  UNL1       -0.2758
      4 N          -4.3508    0.4393   -0.0806 N.am    1  UNL1       -0.2857
      5 C          -3.0815    0.1264    0.4499 C.ar    1  UNL1        0.0342
      6 C          -2.9484    0.1766    1.8443 C.ar    1  UNL1       -0.0404
      7 C          -1.7293   -0.1164    2.4583 C.ar    1  UNL1       -0.0592
      8 C          -0.6259   -0.4637    1.6821 C.ar    1  UNL1       -0.0477
      9 C          -0.7412   -0.5187    0.2870 C.ar    1  UNL1        0.0608
     10 C           0.4137   -0.8719   -0.5835 C.2     1  UNL1        0.3396
     11 O           0.4271   -0.7055   -1.7920 O.2     1  UNL1       -0.2449
     12 O           1.4115   -1.4063    0.1614 O.3     1  UNL1       -0.4564
     13 C           2.6036   -1.7538   -0.5525 C.3     1  UNL1        0.1178
     14 C           3.6341   -0.6746   -0.3461 C.ar    1  UNL1       -0.0103
     15 C           3.7267    0.3956   -1.2468 C.ar    1  UNL1       -0.0554
     16 C           4.6653    1.4089   -1.0475 C.ar    1  UNL1       -0.0614
     17 C           5.5145    1.3662    0.0567 C.ar    1  UNL1       -0.0617
     18 C           5.4226    0.3134    0.9656 C.ar    1  UNL1       -0.0614
     19 C           4.4839   -0.7007    0.7684 C.ar    1  UNL1       -0.0554
     20 C          -1.9702   -0.2180   -0.3238 C.ar    1  UNL1       -0.0265
     21 H          -6.3219    1.2114   -2.6031 H       1  UNL1        0.0323
     22 H          -6.4533    1.6182   -0.8857 H       1  UNL1        0.0323
     23 H          -6.8261   -0.0415   -1.4353 H       1  UNL1        0.0323
     24 H          -5.0626    0.6907    0.5935 H       1  UNL1        0.1548
     25 H          -3.7927    0.4446    2.4749 H       1  UNL1        0.0636
     26 H          -1.6394   -0.0710    3.5409 H       1  UNL1        0.0618
     27 H           0.3194   -0.6794    2.1743 H       1  UNL1        0.0626
     28 H           2.4281   -1.9396   -1.6192 H       1  UNL1        0.0749
     29 H           2.9690   -2.7010   -0.1391 H       1  UNL1        0.0749
     30 H           3.0608    0.4460   -2.1072 H       1  UNL1        0.0621
     31 H           4.7298    2.2332   -1.7530 H       1  UNL1        0.0618
     32 H           6.2443    2.1565    0.2113 H       1  UNL1        0.0618
     33 H           6.0804    0.2840    1.8302 H       1  UNL1        0.0618
     34 H           4.4165   -1.5112    1.4905 H       1  UNL1        0.0621
     35 H          -2.0294   -0.2586   -1.4082 H       1  UNL1        0.0644
@<TRIPOS>BOND
     1     1     2    1
     2     2     3    2
     3     2     4   am
     4     4     5    1
     5     5     6   ar
     6     6     7   ar
     7     7     8   ar
     8     8     9   ar
     9     9    10    1
    10    10    11    2
    11    10    12    1
    12    12    13    1
    13    13    14    1
    14    14    15   ar
    15    15    16   ar
    16    16    17   ar
    17    17    18   ar
    18    18    19   ar
    19     9    20   ar
    20    20     5   ar
    21    19    14   ar
    22     1    21    1
    23     1    22    1
    24     1    23    1
    25     4    24    1
    26     6    25    1
    27     7    26    1
    28     8    27    1
    29    13    28    1
    30    13    29    1
    31    15    30    1
    32    16    31    1
    33    17    32    1
    34    18    33    1
    35    19    34    1
    36    20    35    1
