@<TRIPOS>MOLECULE
*****
 35 35 0 0 0
SMALL
GASTEIGER

@<TRIPOS>ATOM
      1 C          -6.5007   -0.7623    1.5331 C.3     1  UNL1        0.0125
      2 C          -5.6023   -0.4541    0.3608 C.2     1  UNL1        0.2141
      3 O          -6.0602   -0.3693   -0.7726 O.2     1  UNL1       -0.2758
      4 N          -4.2774   -0.3237    0.7390 N.am    1  UNL1       -0.2857
      5 C          -3.1712   -0.0395   -0.0910 C.ar    1  UNL1        0.0351
      6 C          -3.2643    0.1732   -1.4646 C.ar    1  UNL1       -0.0404
      7 C          -2.1180    0.4509   -2.2117 C.ar    1  UNL1       -0.0583
      8 C          -0.8673    0.5192   -1.5946 C.ar    1  UNL1       -0.0404
      9 C          -0.7505    0.3105   -0.2223 C.ar    1  UNL1        0.0351
     10 N           0.4724    0.3593    0.4818 N.am    1  UNL1       -0.2854
     11 C           1.7331    0.6232   -0.0319 C.2     1  UNL1        0.2172
     12 O           2.0093    0.8727   -1.1985 O.2     1  UNL1       -0.2755
     13 C           2.7948    0.5746    1.0593 C.3     1  UNL1        0.0248
     14 C           4.2166    0.8048    0.5485 C.3     1  UNL1       -0.0347
     15 C           4.7657   -0.3923   -0.2301 C.3     1  UNL1        0.0452
     16 C           6.1872   -0.1601   -0.6667 C.2     1  UNL1        0.3047
     17 O           6.9084    0.7797   -0.3798 O.2     1  UNL1       -0.2510
     18 O           6.6457   -1.1641   -1.4400 O.3     1  UNL1       -0.4806
     19 C          -1.9092    0.0317    0.5208 C.ar    1  UNL1       -0.0192
     20 H          -6.1896   -0.2045    2.4211 H       1  UNL1        0.0323
     21 H          -7.5266   -0.4693    1.2916 H       1  UNL1        0.0323
     22 H          -6.4691   -1.8348    1.7416 H       1  UNL1        0.0323
     23 H          -4.0743   -0.4540    1.7214 H       1  UNL1        0.1548
     24 H          -4.2131    0.1322   -1.9902 H       1  UNL1        0.0636
     25 H          -2.2001    0.6158   -3.2836 H       1  UNL1        0.0619
     26 H          -0.0071    0.7378   -2.2192 H       1  UNL1        0.0636
     27 H           0.4184    0.1887    1.4776 H       1  UNL1        0.1548
     28 H           2.5522    1.3626    1.7830 H       1  UNL1        0.0358
     29 H           2.7311   -0.3897    1.5769 H       1  UNL1        0.0358
     30 H           4.8668    0.9962    1.4118 H       1  UNL1        0.0275
     31 H           4.2569    1.7063   -0.0755 H       1  UNL1        0.0275
     32 H           4.1626   -0.5762   -1.1247 H       1  UNL1        0.0378
     33 H           4.7475   -1.2877    0.4008 H       1  UNL1        0.0378
     34 H           7.5603   -0.8922   -1.6637 H       1  UNL1        0.2951
     35 H          -1.8278   -0.1323    1.5916 H       1  UNL1        0.0655
@<TRIPOS>BOND
     1     1     2    1
     2     2     3    2
     3     2     4   am
     4     4     5    1
     5     5     6   ar
     6     6     7   ar
     7     7     8   ar
     8     8     9   ar
     9     9    10    1
    10    10    11   am
    11    11    12    2
    12    11    13    1
    13    13    14    1
    14    14    15    1
    15    15    16    1
    16    16    17    2
    17    16    18    1
    18     9    19   ar
    19    19     5   ar
    20     1    20    1
    21     1    21    1
    22     1    22    1
    23     4    23    1
    24     6    24    1
    25     7    25    1
    26     8    26    1
    27    10    27    1
    28    13    28    1
    29    13    29    1
    30    14    30    1
    31    14    31    1
    32    15    32    1
    33    15    33    1
    34    18    34    1
    35    19    35    1
