@<TRIPOS>MOLECULE
*****
 41 43 0 0 0
SMALL
GASTEIGER

@<TRIPOS>ATOM
      1 C           8.7668   -0.3909    0.4210 C.3     1  UNL1        0.0125
      2 C           7.3271   -0.7209    0.7315 C.2     1  UNL1        0.2155
      3 O           7.0565   -1.6229    1.5155 O.2     1  UNL1       -0.2757
      4 N           6.4496    0.1053    0.0695 N.am    1  UNL1       -0.2649
      5 C           5.0797    0.0844    0.1333 C.ar    1  UNL1        0.1654
      6 N           4.3693    0.9430   -0.5584 N.ar    1  UNL1       -0.2246
      7 C           3.0218    0.7232   -0.3294 C.ar    1  UNL1        0.0803
      8 C           1.9570    1.4549   -0.8933 C.ar    1  UNL1       -0.0344
      9 C           0.6341    1.1218   -0.5745 C.ar    1  UNL1       -0.0476
     10 C           0.3621    0.0616    0.2946 C.ar    1  UNL1        0.0379
     11 C          -1.0317   -0.3145    0.6580 C.2     1  UNL1        0.2443
     12 O          -1.2681   -0.7788    1.7668 O.2     1  UNL1       -0.2702
     13 N          -1.9898   -0.1344   -0.3179 N.am    1  UNL1       -0.3085
     14 C          -3.3999   -0.3977   -0.0640 C.3     1  UNL1        0.0234
     15 C          -4.0532    0.7984    0.6413 C.3     1  UNL1       -0.0345
     16 C          -5.5481    0.5777    0.8581 C.3     1  UNL1       -0.0514
     17 C          -6.2640    0.2433   -0.4470 C.3     1  UNL1       -0.0529
     18 C          -5.6187   -0.9453   -1.1531 C.3     1  UNL1       -0.0514
     19 C          -4.1250   -0.7236   -1.3747 C.3     1  UNL1       -0.0345
     20 C           1.4086   -0.6666    0.8815 C.ar    1  UNL1       -0.0337
     21 C           2.7285   -0.3213    0.5489 C.ar    1  UNL1        0.0415
     22 S           4.2062   -1.0223    1.0820 S.2     1  UNL1       -0.0520
     23 H           8.8694    0.0631   -0.5688 H       1  UNL1        0.0323
     24 H           9.1486    0.2988    1.1782 H       1  UNL1        0.0323
     25 H           9.3577   -1.3113    0.4321 H       1  UNL1        0.0323
     26 H           6.8026    0.8300   -0.5391 H       1  UNL1        0.1567
     27 H           2.1735    2.2804   -1.5649 H       1  UNL1        0.0639
     28 H          -0.1669    1.7247   -0.9934 H       1  UNL1        0.0626
     29 H          -1.7261    0.2178   -1.2271 H       1  UNL1        0.1493
     30 H          -3.4636   -1.2707    0.5986 H       1  UNL1        0.0498
     31 H          -3.9021    1.7083    0.0457 H       1  UNL1        0.0283
     32 H          -3.5693    0.9793    1.6086 H       1  UNL1        0.0283
     33 H          -5.6952   -0.2397    1.5748 H       1  UNL1        0.0266
     34 H          -5.9924    1.4755    1.3023 H       1  UNL1        0.0266
     35 H          -7.3182    0.0239   -0.2439 H       1  UNL1        0.0265
     36 H          -6.2411    1.1173   -1.1096 H       1  UNL1        0.0265
     37 H          -5.7680   -1.8517   -0.5534 H       1  UNL1        0.0266
     38 H          -6.1131   -1.1146   -2.1163 H       1  UNL1        0.0266
     39 H          -3.6855   -1.6185   -1.8319 H       1  UNL1        0.0283
     40 H          -3.9828    0.0934   -2.0944 H       1  UNL1        0.0283
     41 H           1.2035   -1.4801    1.5733 H       1  UNL1        0.0637
@<TRIPOS>BOND
     1     1     2    1
     2     2     3    2
     3     2     4   am
     4     4     5    1
     5     5     6   ar
     6     6     7   ar
     7     7     8   ar
     8     8     9   ar
     9     9    10   ar
    10    10    11    1
    11    11    12    2
    12    11    13   am
    13    13    14    1
    14    14    15    1
    15    15    16    1
    16    16    17    1
    17    17    18    1
    18    18    19    1
    19    10    20   ar
    20    20    21   ar
    21    21    22   ar
    22    22     5   ar
    23    21     7   ar
    24    19    14    1
    25     1    23    1
    26     1    24    1
    27     1    25    1
    28     4    26    1
    29     8    27    1
    30     9    28    1
    31    13    29    1
    32    14    30    1
    33    15    31    1
    34    15    32    1
    35    16    33    1
    36    16    34    1
    37    17    35    1
    38    17    36    1
    39    18    37    1
    40    18    38    1
    41    19    39    1
    42    19    40    1
    43    20    41    1
