@<TRIPOS>MOLECULE
*****
 29 28 0 0 0
SMALL
GASTEIGER

@<TRIPOS>ATOM
      1 C           5.1473    0.3704    0.4172 C.3     1  UNL1        0.0121
      2 C           4.1091   -0.3617   -0.3894 C.2     1  UNL1        0.2099
      3 O           4.3443   -1.4295   -0.9448 O.2     1  UNL1       -0.2761
      4 N           2.8848    0.2637   -0.4333 N.am    1  UNL1       -0.3148
      5 C           1.7476   -0.3820   -1.0617 C.3     1  UNL1        0.0206
      6 C           0.5496    0.5543   -1.2144 C.3     1  UNL1        0.0093
      7 S           0.0098    1.3322    0.3584 S.3     1  UNL1       -0.1577
      8 C          -0.5466   -0.1380    1.3067 C.3     1  UNL1        0.0093
      9 C          -1.7566   -0.8450    0.6976 C.3     1  UNL1        0.0206
     10 N          -2.8825    0.0478    0.4966 N.am    1  UNL1       -0.3148
     11 C          -4.1151   -0.4486    0.1410 C.2     1  UNL1        0.2099
     12 C          -5.1401    0.6086   -0.1685 C.3     1  UNL1        0.0121
     13 O          -4.3669   -1.6466    0.0670 O.2     1  UNL1       -0.2761
     14 H           6.0849    0.3953   -0.1450 H       1  UNL1        0.0322
     15 H           5.2983   -0.1525    1.3651 H       1  UNL1        0.0322
     16 H           4.8442    1.4010    0.6220 H       1  UNL1        0.0322
     17 H           2.6869    0.9814    0.2557 H       1  UNL1        0.1487
     18 H           2.0599   -0.7410   -2.0495 H       1  UNL1        0.0470
     19 H           1.4921   -1.2673   -0.4699 H       1  UNL1        0.0470
     20 H           0.8225    1.3777   -1.8839 H       1  UNL1        0.0392
     21 H          -0.2931    0.0345   -1.6787 H       1  UNL1        0.0392
     22 H          -0.8107    0.2259    2.3060 H       1  UNL1        0.0392
     23 H           0.2873   -0.8342    1.4332 H       1  UNL1        0.0392
     24 H          -2.0775   -1.6576    1.3599 H       1  UNL1        0.0470
     25 H          -1.5110   -1.3016   -0.2670 H       1  UNL1        0.0470
     26 H          -2.6722    1.0152    0.2756 H       1  UNL1        0.1487
     27 H          -6.0794    0.3529    0.3295 H       1  UNL1        0.0322
     28 H          -4.8223    1.5930    0.1863 H       1  UNL1        0.0322
     29 H          -5.2946    0.6517   -1.2497 H       1  UNL1        0.0322
@<TRIPOS>BOND
     1     1     2    1
     2     2     3    2
     3     2     4   am
     4     4     5    1
     5     5     6    1
     6     6     7    1
     7     7     8    1
     8     8     9    1
     9     9    10    1
    10    10    11   am
    11    11    12    1
    12    11    13    2
    13     1    14    1
    14     1    15    1
    15     1    16    1
    16     4    17    1
    17     5    18    1
    18     5    19    1
    19     6    20    1
    20     6    21    1
    21     8    22    1
    22     8    23    1
    23     9    24    1
    24     9    25    1
    25    10    26    1
    26    12    27    1
    27    12    28    1
    28    12    29    1
