@<TRIPOS>MOLECULE
*****
 40 46 0 0 0
SMALL
GASTEIGER

@<TRIPOS>ATOM
      1 SI         -6.5087    0.2225    1.3521 Si      1  UNL1        0.0000
      2 C          -6.3366    0.1456   -0.5065 C.2     1  UNL1        0.0000
      3 C          -5.0402    0.1012   -0.8690 C.ar    1  UNL1        0.0000
      4 C          -4.5959    0.0365   -2.2549 C.ar    1  UNL1        0.0000
      5 C          -3.2822   -0.0054   -2.5434 C.ar    1  UNL1        0.0000
      6 C          -2.3520    0.0155   -1.4599 C.ar    1  UNL1        0.0000
      7 O          -0.9848   -0.0223   -1.6139 O.2     1  UNL1        0.0000
      8 C          -0.4510    0.0139   -0.3723 C.ar    1  UNL1        0.0000
      9 C           1.0250   -0.0051    0.0158 C.ar    1  UNL1        0.0000
     10 N           2.1573   -0.0609   -0.7373 N.ar    1  UNL1        0.0000
     11 C           3.2712   -0.0539    0.0989 C.ar    1  UNL1        0.0000
     12 C           2.7933    0.0085    1.4135 C.ar    1  UNL1        0.0000
     13 C           1.4055    0.0371    1.3211 C.ar    1  UNL1        0.0000
     14 C           0.3813    0.0995    2.3073 C.ar    1  UNL1        0.0000
     15 N           0.6686    0.1435    3.6039 N.ar    1  UNL1        0.0000
     16 S          -0.8527    0.2071    4.3283 S.2     1  UNL1        0.0000
     17 N          -1.8559    0.1774    2.9722 N.ar    1  UNL1        0.0000
     18 C          -1.0127    0.1178    1.9479 C.ar    1  UNL1        0.0000
     19 C          -1.4416    0.0741    0.5775 C.ar    1  UNL1        0.0000
     20 C          -2.6730    0.0767   -0.0873 C.ar    1  UNL1        0.0000
     21 C          -4.0634    0.1229    0.2653 C.ar    1  UNL1        0.0000
     22 C          -4.6459    0.1840    1.4765 C.2     1  UNL1        0.0000
     23 C           4.6562   -0.1047   -0.3791 C.ar    1  UNL1        0.0000
     24 C           5.0069   -0.1653   -1.7242 C.ar    1  UNL1        0.0000
     25 C           6.3585   -0.2098   -2.0638 C.ar    1  UNL1        0.0000
     26 C           7.3161   -0.1928   -1.0580 C.ar    1  UNL1        0.0000
     27 C           6.8804   -0.1316    0.2534 C.ar    1  UNL1        0.0000
     28 N           5.5789   -0.0875    0.6108 N.ar    1  UNL1        0.0000
     29 H          -7.0880    1.5097    1.8060 H       1  UNL1        0.0000
     30 H          -7.1463   -0.9968    1.9044 H       1  UNL1        0.0000
     31 H          -7.2004    0.1404   -1.1518 H       1  UNL1        0.0000
     32 H          -5.3384    0.0227   -3.0456 H       1  UNL1        0.0000
     33 H          -2.9165   -0.0538   -3.5617 H       1  UNL1        0.0000
     34 H           2.1727   -0.1007   -1.7465 H       1  UNL1        0.0000
     35 H           3.4088    0.0291    2.3046 H       1  UNL1        0.0000
     36 H          -4.1807    0.2112    2.4443 H       1  UNL1        0.0000
     37 H           4.2648   -0.1788   -2.5122 H       1  UNL1        0.0000
     38 H           6.6604   -0.2575   -3.1063 H       1  UNL1        0.0000
     39 H           8.3748   -0.2263   -1.2889 H       1  UNL1        0.0000
     40 H           7.5860   -0.1157    1.0790 H       1  UNL1        0.0000
@<TRIPOS>BOND
     1     1     2    1
     2     2     3    2
     3     3     4   ar
     4     4     5   ar
     5     5     6   ar
     6     6     7   ar
     7     7     8   ar
     8     8     9   ar
     9     9    10   ar
    10    10    11   ar
    11    11    12   ar
    12    12    13   ar
    13    13    14   ar
    14    14    15   ar
    15    15    16   ar
    16    16    17   ar
    17    17    18   ar
    18    18    19   ar
    19    19    20   ar
    20    20    21   ar
    21    21    22    2
    22    11    23    1
    23    23    24   ar
    24    24    25   ar
    25    25    26   ar
    26    26    27   ar
    27    27    28   ar
    28    22     1    1
    29    28    23   ar
    30    21     3   ar
    31    20     6   ar
    32    19     8   ar
    33    13     9   ar
    34    18    14   ar
    35     1    29    1
    36     1    30    1
    37     2    31    1
    38     4    32    1
    39     5    33    1
    40    10    34    1
    41    12    35    1
    42    22    36    1
    43    24    37    1
    44    25    38    1
    45    26    39    1
    46    27    40    1
