@<TRIPOS>MOLECULE
*****
 30 31 0 0 0
SMALL
GASTEIGER

@<TRIPOS>ATOM
      1 C          -6.5348    0.6771    0.6926 C.3     1  UNL1        0.0336
      2 C          -5.0486    0.8373    0.8162 C.2     1  UNL1        0.3092
      3 O          -4.4937    1.4517    1.7166 O.2     1  UNL1       -0.2507
      4 O          -4.4390    0.1798   -0.2484 O.3     1  UNL1       -0.4260
      5 C          -3.0399    0.2339   -0.2837 C.ar    1  UNL1        0.1317
      6 C          -2.2646   -0.2988    0.7462 C.ar    1  UNL1       -0.0185
      7 C          -0.8711   -0.2642    0.6464 C.ar    1  UNL1       -0.0462
      8 C          -0.2621    0.2770   -0.4965 C.ar    1  UNL1        0.0373
      9 C           1.2218    0.3353   -0.6504 C.2     1  UNL1        0.2497
     10 O           1.6982    1.2631   -1.2922 O.2     1  UNL1       -0.2698
     11 N           1.9024   -0.7102   -0.0722 N.am    1  UNL1       -0.2593
     12 C           3.2633   -0.8888   -0.0434 C.ar    1  UNL1        0.1880
     13 N           3.8114   -1.9656    0.4761 N.ar    1  UNL1       -0.1256
     14 N           5.1903   -1.9331    0.4102 N.ar    1  UNL1       -0.1450
     15 C           5.6273   -0.8259   -0.1523 C.ar    1  UNL1        0.1006
     16 C           7.0545   -0.4855   -0.3714 C.3     1  UNL1       -0.0140
     17 S           4.3812    0.2503   -0.6367 S.2     1  UNL1       -0.0356
     18 C          -1.0578    0.8032   -1.5254 C.ar    1  UNL1       -0.0462
     19 C          -2.4496    0.7715   -1.4253 C.ar    1  UNL1       -0.0185
     20 H          -7.0245    1.1904    1.5251 H       1  UNL1        0.0342
     21 H          -6.8792    1.1243   -0.2432 H       1  UNL1        0.0342
     22 H          -6.7980   -0.3828    0.7338 H       1  UNL1        0.0342
     23 H          -2.7341   -0.7185    1.6318 H       1  UNL1        0.0654
     24 H          -0.2827   -0.6345    1.4814 H       1  UNL1        0.0626
     25 H           1.3979   -1.4908    0.3222 H       1  UNL1        0.1571
     26 H           7.2639   -0.3500   -1.4371 H       1  UNL1        0.0298
     27 H           7.7008   -1.2877   -0.0009 H       1  UNL1        0.0298
     28 H           7.3219    0.4339    0.1590 H       1  UNL1        0.0298
     29 H          -0.5925    1.2372   -2.4089 H       1  UNL1        0.0626
     30 H          -3.0626    1.1704   -2.2284 H       1  UNL1        0.0654
@<TRIPOS>BOND
     1     1     2    1
     2     2     3    2
     3     2     4    1
     4     4     5    1
     5     5     6   ar
     6     6     7   ar
     7     7     8   ar
     8     8     9    1
     9     9    10    2
    10     9    11   am
    11    11    12    1
    12    12    13   ar
    13    13    14   ar
    14    14    15   ar
    15    15    16    1
    16    15    17   ar
    17     8    18   ar
    18    18    19   ar
    19    19     5   ar
    20    17    12   ar
    21     1    20    1
    22     1    21    1
    23     1    22    1
    24     6    23    1
    25     7    24    1
    26    11    25    1
    27    16    26    1
    28    16    27    1
    29    16    28    1
    30    18    29    1
    31    19    30    1
