@<TRIPOS>MOLECULE
*****
 38 40 0 0 0
SMALL
GASTEIGER

@<TRIPOS>ATOM
      1 C           0.5658   -3.0491    1.2697 C.3     1  UNL1       -0.0339
      2 C           0.0296   -1.8705    0.4536 C.3     1  UNL1        0.1296
      3 C          -1.0638   -1.0813    1.2223 C.2     1  UNL1        0.2400
      4 O          -1.5060   -1.5164    2.2918 O.2     1  UNL1       -0.2733
      5 N          -1.6370    0.0416    0.6225 N.am    1  UNL1       -0.2997
      6 C          -1.3790    0.4723   -0.7514 C.3     1  UNL1        0.0147
      7 C          -2.4062    1.4820   -1.2673 C.3     1  UNL1       -0.0371
      8 C          -3.8249    1.0636   -0.8951 C.3     1  UNL1       -0.0502
      9 C          -3.9792    0.7804    0.6037 C.3     1  UNL1       -0.0371
     10 C          -2.6498    0.7954    1.3546 C.3     1  UNL1        0.0147
     11 N           1.1265   -1.0358   -0.0594 N.ar    1  UNL1       -0.2146
     12 N           1.4298   -1.1997   -1.4214 N.ar    1  UNL1       -0.1574
     13 C           2.4602   -0.5768   -1.9101 C.ar    1  UNL1        0.1212
     14 N           3.2614    0.2243   -1.1141 N.ar    1  UNL1       -0.3012
     15 C           4.3672    0.9534   -1.4749 C.ar    1  UNL1        0.0114
     16 C           4.8415    1.5886   -0.3456 C.ar    1  UNL1       -0.0430
     17 C           3.9924    1.2267    0.7298 C.ar    1  UNL1       -0.0311
     18 C           3.0249    0.3834    0.2210 C.ar    1  UNL1        0.1138
     19 C           1.9162   -0.2912    0.8411 C.ar    1  UNL1        0.2919
     20 O           1.6819   -0.2072    2.0418 O.2     1  UNL1       -0.2639
     21 H           1.0297   -2.7218    2.2057 H       1  UNL1        0.0255
     22 H          -0.2427   -3.7407    1.5305 H       1  UNL1        0.0255
     23 H           1.3171   -3.6071    0.7006 H       1  UNL1        0.0255
     24 H          -0.4841   -2.3010   -0.4170 H       1  UNL1        0.0640
     25 H          -1.3775   -0.4113   -1.3977 H       1  UNL1        0.0464
     26 H          -0.3873    0.9322   -0.7875 H       1  UNL1        0.0464
     27 H          -2.3116    1.5874   -2.3538 H       1  UNL1        0.0280
     28 H          -2.1986    2.4705   -0.8384 H       1  UNL1        0.0280
     29 H          -4.0914    0.1601   -1.4579 H       1  UNL1        0.0266
     30 H          -4.5363    1.8385   -1.2028 H       1  UNL1        0.0266
     31 H          -4.4580   -0.1992    0.7263 H       1  UNL1        0.0280
     32 H          -4.6575    1.5138    1.0550 H       1  UNL1        0.0280
     33 H          -2.7936    0.4092    2.3686 H       1  UNL1        0.0464
     34 H          -2.2794    1.8222    1.4620 H       1  UNL1        0.0464
     35 H           2.7170   -0.6777   -2.9764 H       1  UNL1        0.1050
     36 H           4.7257    0.9610   -2.4958 H       1  UNL1        0.0813
     37 H           5.7059    2.2397   -0.2986 H       1  UNL1        0.0633
     38 H           4.0713    1.5404    1.7642 H       1  UNL1        0.0640
@<TRIPOS>BOND
     1     1     2    1
     2     2     3    1
     3     3     4    2
     4     3     5   am
     5     5     6    1
     6     6     7    1
     7     7     8    1
     8     8     9    1
     9     9    10    1
    10     2    11    1
    11    11    12   ar
    12    12    13   ar
    13    13    14   ar
    14    14    15   ar
    15    15    16   ar
    16    16    17   ar
    17    17    18   ar
    18    18    19   ar
    19    19    20    2
    20    10     5    1
    21    19    11   ar
    22    18    14   ar
    23     1    21    1
    24     1    22    1
    25     1    23    1
    26     2    24    1
    27     6    25    1
    28     6    26    1
    29     7    27    1
    30     7    28    1
    31     8    29    1
    32     8    30    1
    33     9    31    1
    34     9    32    1
    35    10    33    1
    36    10    34    1
    37    13    35    1
    38    15    36    1
    39    16    37    1
    40    17    38    1
