@<TRIPOS>MOLECULE
*****
 40 41 0 0 0
SMALL
GASTEIGER

@<TRIPOS>ATOM
      1 C           5.3702   -0.1889    1.5753 C.3     1  UNL1       -0.0517
      2 C           4.4152    0.1417    0.4131 C.3     1  UNL1        0.0389
      3 C           4.7503   -0.7810   -0.7690 C.3     1  UNL1       -0.0517
      4 C           4.6242    1.6110    0.0149 C.3     1  UNL1       -0.0517
      5 C           2.9522   -0.0845    0.8679 C.2     1  UNL1        0.2226
      6 O           2.6946   -0.4704    2.0051 O.2     1  UNL1       -0.2749
      7 N           2.0139    0.1881   -0.1152 N.am    1  UNL1       -0.2851
      8 C           0.6105    0.0837   -0.0227 C.ar    1  UNL1        0.0335
      9 C          -0.1325    0.4168   -1.1560 C.ar    1  UNL1       -0.0387
     10 C          -1.5337    0.3392   -1.1455 C.ar    1  UNL1       -0.0389
     11 C          -2.2487   -0.0706   -0.0124 C.ar    1  UNL1        0.0298
     12 N          -3.6205   -0.1448   -0.0042 N.pl3   1  UNL1       -0.3299
     13 C          -4.4648    0.0463   -1.1805 C.3     1  UNL1        0.0122
     14 C          -5.8395   -0.4414   -0.7299 C.3     1  UNL1       -0.0358
     15 C          -5.8482   -0.1192    0.7538 C.3     1  UNL1       -0.0358
     16 C          -4.4188   -0.4395    1.1838 C.3     1  UNL1        0.0122
     17 C          -1.4790   -0.3990    1.1124 C.ar    1  UNL1       -0.0389
     18 C          -0.0758   -0.3259    1.1138 C.ar    1  UNL1       -0.0387
     19 H           5.1709    0.4463    2.4462 H       1  UNL1        0.0239
     20 H           6.4167   -0.0391    1.2865 H       1  UNL1        0.0239
     21 H           5.2592   -1.2311    1.8965 H       1  UNL1        0.0239
     22 H           5.8097   -0.7085   -1.0396 H       1  UNL1        0.0239
     23 H           4.5357   -1.8272   -0.5224 H       1  UNL1        0.0239
     24 H           4.1690   -0.5324   -1.6633 H       1  UNL1        0.0239
     25 H           4.3190    2.2835    0.8248 H       1  UNL1        0.0239
     26 H           5.6768    1.8132   -0.2132 H       1  UNL1        0.0239
     27 H           4.0416    1.8846   -0.8712 H       1  UNL1        0.0239
     28 H           2.3635    0.5003   -1.0103 H       1  UNL1        0.1548
     29 H           0.3565    0.7449   -2.0689 H       1  UNL1        0.0637
     30 H          -2.0580    0.6199   -2.0543 H       1  UNL1        0.0637
     31 H          -4.1243   -0.5341   -2.0447 H       1  UNL1        0.0464
     32 H          -4.5025    1.1085   -1.4479 H       1  UNL1        0.0464
     33 H          -6.6547    0.0408   -1.2764 H       1  UNL1        0.0281
     34 H          -5.9210   -1.5252   -0.8770 H       1  UNL1        0.0281
     35 H          -6.5921   -0.6947    1.3115 H       1  UNL1        0.0281
     36 H          -6.0560    0.9473    0.9031 H       1  UNL1        0.0281
     37 H          -4.1381    0.1756    2.0455 H       1  UNL1        0.0464
     38 H          -4.3254   -1.4994    1.4469 H       1  UNL1        0.0464
     39 H          -1.9564   -0.7341    2.0290 H       1  UNL1        0.0637
     40 H           0.4401   -0.6010    2.0278 H       1  UNL1        0.0637
@<TRIPOS>BOND
     1     1     2    1
     2     2     3    1
     3     2     4    1
     4     2     5    1
     5     5     6    2
     6     5     7   am
     7     7     8    1
     8     8     9   ar
     9     9    10   ar
    10    10    11   ar
    11    11    12    1
    12    12    13    1
    13    13    14    1
    14    14    15    1
    15    15    16    1
    16    11    17   ar
    17    17    18   ar
    18    18     8   ar
    19    16    12    1
    20     1    19    1
    21     1    20    1
    22     1    21    1
    23     3    22    1
    24     3    23    1
    25     3    24    1
    26     4    25    1
    27     4    26    1
    28     4    27    1
    29     7    28    1
    30     9    29    1
    31    10    30    1
    32    13    31    1
    33    13    32    1
    34    14    33    1
    35    14    34    1
    36    15    35    1
    37    15    36    1
    38    16    37    1
    39    16    38    1
    40    17    39    1
    41    18    40    1
