@<TRIPOS>MOLECULE
*****
 35 38 0 0 0
SMALL
GASTEIGER

@<TRIPOS>ATOM
      1 C          -3.7492   -0.9762   -0.7408 C.3     1  UNL1       -0.0560
      2 C          -3.0046    0.1583   -0.0046 C.3     1  UNL1       -0.0127
      3 C          -3.6860    0.4164    1.3566 C.3     1  UNL1       -0.0560
      4 C          -3.1768    1.4404   -0.8507 C.3     1  UNL1       -0.0560
      5 C          -1.5327   -0.2476    0.2206 C.ar    1  UNL1       -0.0413
      6 C          -0.4612    0.5020   -0.3097 C.ar    1  UNL1       -0.0482
      7 C           0.8294    0.0745   -0.0647 C.ar    1  UNL1        0.0098
      8 C           1.0899   -1.1105    0.7145 C.ar    1  UNL1        0.0269
      9 C           2.5264   -1.2876    0.7887 C.ar    1  UNL1        0.1463
     10 N           3.4830   -2.0478    1.2647 N.ar    1  UNL1       -0.2349
     11 C           4.6680   -1.4202    0.8120 C.ar    1  UNL1        0.0538
     12 C           4.3951   -0.2843    0.0658 C.ar    1  UNL1        0.0666
     13 N           3.0478   -0.2608    0.0909 N.ar    1  UNL1       -0.2921
     14 C           2.1467    0.6161   -0.4643 C.ar    1  UNL1        0.0564
     15 C           2.6697    1.6390   -1.1595 C.ar    1  UNL1       -0.0371
     16 C           4.1504    1.7040   -1.2475 C.ar    1  UNL1       -0.0578
     17 C           4.9746    0.7894   -0.6649 C.ar    1  UNL1       -0.0362
     18 C           0.0673   -1.8578    1.2417 C.ar    1  UNL1       -0.0502
     19 C          -1.2393   -1.4179    0.9890 C.ar    1  UNL1       -0.0574
     20 H          -3.7768   -1.9024   -0.1567 H       1  UNL1        0.0238
     21 H          -4.7892   -0.6974   -0.9471 H       1  UNL1        0.0238
     22 H          -3.2689   -1.2058   -1.6994 H       1  UNL1        0.0238
     23 H          -3.7123   -0.4805    1.9848 H       1  UNL1        0.0238
     24 H          -3.1600    1.1969    1.9191 H       1  UNL1        0.0238
     25 H          -4.7239    0.7436    1.2231 H       1  UNL1        0.0238
     26 H          -4.2372    1.6872   -0.9825 H       1  UNL1        0.0238
     27 H          -2.7023    2.3058   -0.3734 H       1  UNL1        0.0238
     28 H          -2.7470    1.3238   -1.8524 H       1  UNL1        0.0238
     29 H          -0.6145    1.3976   -0.8999 H       1  UNL1        0.0627
     30 H           5.6343   -1.8395    1.0613 H       1  UNL1        0.0851
     31 H           2.0692    2.3977   -1.6453 H       1  UNL1        0.0638
     32 H           4.5676    2.5342   -1.8115 H       1  UNL1        0.0619
     33 H           6.0536    0.8675   -0.7494 H       1  UNL1        0.0639
     34 H           0.2625   -2.7491    1.8279 H       1  UNL1        0.0625
     35 H          -2.0536   -2.0093    1.4065 H       1  UNL1        0.0621
@<TRIPOS>BOND
     1     1     2    1
     2     2     3    1
     3     2     4    1
     4     2     5    1
     5     5     6   ar
     6     6     7   ar
     7     7     8   ar
     8     8     9   ar
     9     9    10   ar
    10    10    11   ar
    11    11    12   ar
    12    12    13   ar
    13    13    14   ar
    14    14    15   ar
    15    15    16   ar
    16    16    17   ar
    17     8    18   ar
    18    18    19   ar
    19    19     5   ar
    20    14     7   ar
    21    13     9   ar
    22    17    12   ar
    23     1    20    1
    24     1    21    1
    25     1    22    1
    26     3    23    1
    27     3    24    1
    28     3    25    1
    29     4    26    1
    30     4    27    1
    31     4    28    1
    32     6    29    1
    33    11    30    1
    34    15    31    1
    35    16    32    1
    36    17    33    1
    37    18    34    1
    38    19    35    1
