@<TRIPOS>MOLECULE
*****
 38 39 0 0 0
SMALL
GASTEIGER

@<TRIPOS>ATOM
      1 C          -3.1940   -0.9322    0.2861 C.3     1  UNL1       -0.0559
      2 C          -2.5026    0.4165   -0.0155 C.3     1  UNL1       -0.0092
      3 C          -3.6145    1.4955    0.0722 C.3     1  UNL1       -0.0559
      4 C          -2.0046    0.4384   -1.4783 C.3     1  UNL1       -0.0559
      5 C          -1.3245    0.6530    0.9660 C.ar    1  UNL1        0.0007
      6 C          -1.3328    1.7676    1.8351 C.ar    1  UNL1       -0.0406
      7 C          -0.2886    2.0066    2.7301 C.ar    1  UNL1        0.0184
      8 BR         -0.3521    3.5141    3.8698 Br      1  UNL1       -0.0503
      9 C           0.7960    1.1471    2.7885 C.ar    1  UNL1       -0.0443
     10 C           0.8369    0.0376    1.9459 C.ar    1  UNL1       -0.0186
     11 C          -0.2069   -0.2204    1.0423 C.ar    1  UNL1        0.1249
     12 O          -0.2035   -1.2872    0.1824 O.3     1  UNL1       -0.4825
     13 C           0.8158   -2.2713    0.2830 C.3     1  UNL1        0.1656
     14 C           2.1292   -1.8976   -0.4076 C.2     1  UNL1        0.2570
     15 O           3.1963   -2.4369   -0.1142 O.2     1  UNL1       -0.2717
     16 N           1.9858   -0.9482   -1.3935 N.am    1  UNL1       -0.2521
     17 C           3.0436   -0.4967   -2.1343 C.ar    1  UNL1        0.2173
     18 N           2.9841    0.4253   -3.0648 N.ar    1  UNL1       -0.2014
     19 C           4.2799    0.5130   -3.4943 C.ar    1  UNL1        0.1397
     20 N           5.1445   -0.3029   -2.8860 N.ar    1  UNL1       -0.1596
     21 N           4.3346   -0.9390   -2.0207 N.ar    1  UNL1       -0.2467
     22 H          -2.5466   -1.7947    0.1059 H       1  UNL1        0.0238
     23 H          -3.5215   -0.9802    1.3315 H       1  UNL1        0.0238
     24 H          -4.0792   -1.0712   -0.3462 H       1  UNL1        0.0238
     25 H          -3.2298    2.4935   -0.1683 H       1  UNL1        0.0238
     26 H          -4.4249    1.2877   -0.6373 H       1  UNL1        0.0238
     27 H          -4.0678    1.5298    1.0699 H       1  UNL1        0.0238
     28 H          -2.8441    0.3786   -2.1814 H       1  UNL1        0.0238
     29 H          -1.4562    1.3631   -1.6932 H       1  UNL1        0.0238
     30 H          -1.3442   -0.3992   -1.7178 H       1  UNL1        0.0238
     31 H          -2.1563    2.4757    1.8323 H       1  UNL1        0.0633
     32 H           1.6143    1.3292    3.4802 H       1  UNL1        0.0630
     33 H           1.7109   -0.6013    2.0241 H       1  UNL1        0.0654
     34 H           0.9985   -2.5625    1.3234 H       1  UNL1        0.0795
     35 H           0.4428   -3.1653   -0.2302 H       1  UNL1        0.0795
     36 H           1.0866   -0.5106   -1.5607 H       1  UNL1        0.1578
     37 H           4.6008    1.1921   -4.2741 H       1  UNL1        0.1066
     38 H           4.6941   -1.6469   -1.3870 H       1  UNL1        0.1918
@<TRIPOS>BOND
     1     1     2    1
     2     2     3    1
     3     2     4    1
     4     2     5    1
     5     5     6   ar
     6     6     7   ar
     7     7     8    1
     8     7     9   ar
     9     9    10   ar
    10    10    11   ar
    11    11    12    1
    12    12    13    1
    13    13    14    1
    14    14    15    2
    15    14    16   am
    16    16    17    1
    17    17    18   ar
    18    18    19   ar
    19    19    20   ar
    20    20    21   ar
    21    11     5   ar
    22    21    17   ar
    23     1    22    1
    24     1    23    1
    25     1    24    1
    26     3    25    1
    27     3    26    1
    28     3    27    1
    29     4    28    1
    30     4    29    1
    31     4    30    1
    32     6    31    1
    33     9    32    1
    34    10    33    1
    35    13    34    1
    36    13    35    1
    37    16    36    1
    38    19    37    1
    39    21    38    1
