@<TRIPOS>MOLECULE
*****
 31 31 0 0 0
SMALL
GASTEIGER

@<TRIPOS>ATOM
      1 C          -3.2517   -0.7682   -1.0743 C.3     1  UNL1       -0.0560
      2 C          -2.4653   -0.8580    0.2513 C.3     1  UNL1       -0.0127
      3 C          -3.2335   -0.0171    1.2960 C.3     1  UNL1       -0.0560
      4 C          -2.4724   -2.3200    0.7480 C.3     1  UNL1       -0.0560
      5 C          -1.0156   -0.3956    0.0251 C.ar    1  UNL1       -0.0418
      6 C          -0.1947   -1.0682   -0.8983 C.ar    1  UNL1       -0.0546
      7 C           1.1268   -0.6698   -1.1244 C.ar    1  UNL1       -0.0196
      8 C           1.6718    0.4110   -0.4362 C.ar    1  UNL1        0.1213
      9 O           2.9705    0.6958   -0.7516 O.3     1  UNL1       -0.4808
     10 C           3.5878    1.7616   -0.0424 C.3     1  UNL1        0.1857
     11 C           5.0304    1.9472   -0.4722 C.2     1  UNL1        0.3427
     12 O           5.6239    3.0148   -0.5252 O.2     1  UNL1       -0.2472
     13 O           5.6819    0.7994   -0.7462 O.3     1  UNL1       -0.4783
     14 C           0.8777    1.0923    0.4814 C.ar    1  UNL1       -0.0196
     15 C          -0.4484    0.6925    0.7079 C.ar    1  UNL1       -0.0546
     16 H          -4.2991   -1.0599   -0.9332 H       1  UNL1        0.0238
     17 H          -3.2406    0.2539   -1.4711 H       1  UNL1        0.0238
     18 H          -2.8380   -1.4254   -1.8471 H       1  UNL1        0.0238
     19 H          -4.2590   -0.3845    1.4221 H       1  UNL1        0.0238
     20 H          -2.7531   -0.0597    2.2805 H       1  UNL1        0.0238
     21 H          -3.3034    1.0347    0.9949 H       1  UNL1        0.0238
     22 H          -3.4936   -2.6637    0.9505 H       1  UNL1        0.0238
     23 H          -2.0425   -3.0095    0.0132 H       1  UNL1        0.0238
     24 H          -1.8953   -2.4246    1.6744 H       1  UNL1        0.0238
     25 H          -0.5730   -1.9191   -1.4606 H       1  UNL1        0.0622
     26 H           1.7346   -1.2120   -1.8448 H       1  UNL1        0.0654
     27 H           3.0656    2.7002   -0.2617 H       1  UNL1        0.0815
     28 H           3.5952    1.5626    1.0354 H       1  UNL1        0.0815
     29 H           6.5840    1.0840   -0.9986 H       1  UNL1        0.2952
     30 H           1.2493    1.9431    1.0424 H       1  UNL1        0.0654
     31 H          -1.0204    1.2621    1.4355 H       1  UNL1        0.0622
@<TRIPOS>BOND
     1     1     2    1
     2     2     3    1
     3     2     4    1
     4     2     5    1
     5     5     6   ar
     6     6     7   ar
     7     7     8   ar
     8     8     9    1
     9     9    10    1
    10    10    11    1
    11    11    12    2
    12    11    13    1
    13     8    14   ar
    14    14    15   ar
    15    15     5   ar
    16     1    16    1
    17     1    17    1
    18     1    18    1
    19     3    19    1
    20     3    20    1
    21     3    21    1
    22     4    22    1
    23     4    23    1
    24     4    24    1
    25     6    25    1
    26     7    26    1
    27    10    27    1
    28    10    28    1
    29    13    29    1
    30    14    30    1
    31    15    31    1
