@<TRIPOS>MOLECULE
*****
 34 34 0 0 0
SMALL
GASTEIGER

@<TRIPOS>ATOM
      1 C           3.9123   -0.5931   -1.2751 C.3     1  UNL1       -0.0442
      2 C           3.6313    0.3190   -0.0702 C.3     1  UNL1        0.0263
      3 C           4.7642    0.1250    0.9550 C.3     1  UNL1       -0.0442
      4 C           3.6227    1.7912   -0.5105 C.3     1  UNL1       -0.0442
      5 N           2.3618   -0.0407    0.5817 N.am    1  UNL1       -0.3078
      6 C           1.1202   -0.0032   -0.0309 C.2     1  UNL1        0.2512
      7 O           0.9470    0.3057   -1.2051 O.2     1  UNL1       -0.2721
      8 C          -0.0195   -0.4020    0.9080 C.3     1  UNL1        0.1684
      9 O          -1.2906   -0.1984    0.2977 O.3     1  UNL1       -0.4517
     10 C          -2.3292   -0.6122    1.0543 C.2     1  UNL1        0.3411
     11 O          -2.2725   -1.1696    2.1369 O.2     1  UNL1       -0.2449
     12 C          -3.5816   -0.3805    0.3198 C.ar    1  UNL1        0.0783
     13 C          -4.3858   -1.4992    0.0610 C.ar    1  UNL1       -0.0324
     14 C          -5.5812   -1.3378   -0.6355 C.ar    1  UNL1        0.0187
     15 BR         -6.6648   -2.8426   -0.9996 Br      1  UNL1       -0.0503
     16 C          -5.9855   -0.0746   -1.0657 C.ar    1  UNL1       -0.0463
     17 C          -5.1911    1.0414   -0.7877 C.ar    1  UNL1       -0.0415
     18 C          -3.9886    0.8945   -0.0885 C.ar    1  UNL1        0.0550
     19 CL         -3.0963    2.3253    0.2828 Cl      1  UNL1       -0.0827
     20 H           4.9015   -0.3909   -1.7013 H       1  UNL1        0.0250
     21 H           3.8806   -1.6493   -0.9840 H       1  UNL1        0.0250
     22 H           3.1801   -0.4534   -2.0766 H       1  UNL1        0.0250
     23 H           5.7407    0.3768    0.5264 H       1  UNL1        0.0250
     24 H           4.8071   -0.9136    1.3036 H       1  UNL1        0.0250
     25 H           4.6112    0.7577    1.8372 H       1  UNL1        0.0250
     26 H           2.8731    1.9827   -1.2850 H       1  UNL1        0.0250
     27 H           4.5958    2.0877   -0.9183 H       1  UNL1        0.0250
     28 H           3.3956    2.4525    0.3336 H       1  UNL1        0.0250
     29 H           2.3907   -0.2443    1.5731 H       1  UNL1        0.1493
     30 H           0.1126   -1.4619    1.1561 H       1  UNL1        0.0796
     31 H           0.0492    0.2118    1.8138 H       1  UNL1        0.0796
     32 H          -4.0716   -2.4840    0.4003 H       1  UNL1        0.0637
     33 H          -6.9185    0.0542   -1.6097 H       1  UNL1        0.0629
     34 H          -5.5210    2.0258   -1.1131 H       1  UNL1        0.0633
@<TRIPOS>BOND
     1     1     2    1
     2     2     3    1
     3     2     4    1
     4     2     5    1
     5     5     6   am
     6     6     7    2
     7     6     8    1
     8     8     9    1
     9     9    10    1
    10    10    11    2
    11    10    12    1
    12    12    13   ar
    13    13    14   ar
    14    14    15    1
    15    14    16   ar
    16    16    17   ar
    17    17    18   ar
    18    18    19    1
    19    18    12   ar
    20     1    20    1
    21     1    21    1
    22     1    22    1
    23     3    23    1
    24     3    24    1
    25     3    25    1
    26     4    26    1
    27     4    27    1
    28     4    28    1
    29     5    29    1
    30     8    30    1
    31     8    31    1
    32    13    32    1
    33    16    33    1
    34    17    34    1
