@<TRIPOS>MOLECULE
*****
 32 32 0 0 0
SMALL
GASTEIGER

@<TRIPOS>ATOM
      1 C          -3.9355   -0.1835    0.6471 C.3     1  UNL1       -0.0443
      2 C          -2.4362   -0.1362    0.2818 C.3     1  UNL1        0.0252
      3 C          -2.3302   -0.1319   -1.2511 C.3     1  UNL1       -0.0443
      4 C          -1.8528    1.1542    0.8789 C.3     1  UNL1       -0.0443
      5 N          -1.8021   -1.3414    0.8599 N.am    1  UNL1       -0.3218
      6 C          -0.5249   -1.7950    0.9213 C.2     1  UNL1        0.1309
      7 S          -0.2713   -3.2409    1.7191 S.2     1  UNL1       -0.0189
      8 N           0.4407   -1.0283    0.3565 N.am    1  UNL1       -0.3224
      9 C           1.8551   -1.3573    0.2727 C.3     1  UNL1        0.0373
     10 C           2.6386   -0.2038   -0.2789 C.ar    1  UNL1       -0.0123
     11 C           2.8605    0.9518    0.4766 C.ar    1  UNL1       -0.0542
     12 C           3.5766    2.0101   -0.0741 C.ar    1  UNL1       -0.0433
     13 C           4.0450    1.8795   -1.3705 C.ar    1  UNL1        0.0276
     14 N           3.8450    0.7837   -2.1336 N.ar    1  UNL1       -0.2629
     15 C           3.1493   -0.2309   -1.5719 C.ar    1  UNL1        0.0322
     16 H          -4.4741    0.6833    0.2480 H       1  UNL1        0.0250
     17 H          -4.4113   -1.0872    0.2481 H       1  UNL1        0.0250
     18 H          -4.0763   -0.1956    1.7344 H       1  UNL1        0.0250
     19 H          -2.7300   -1.0614   -1.6731 H       1  UNL1        0.0250
     20 H          -1.3009   -0.0351   -1.6050 H       1  UNL1        0.0250
     21 H          -2.8965    0.7020   -1.6818 H       1  UNL1        0.0250
     22 H          -1.8887    1.1297    1.9742 H       1  UNL1        0.0250
     23 H          -2.4176    2.0321    0.5445 H       1  UNL1        0.0250
     24 H          -0.8113    1.3201    0.5922 H       1  UNL1        0.0250
     25 H          -2.4380   -1.9897    1.3140 H       1  UNL1        0.1482
     26 H           0.1367   -0.2920   -0.2567 H       1  UNL1        0.1481
     27 H           2.2310   -1.6183    1.2685 H       1  UNL1        0.0512
     28 H           1.9607   -2.2444   -0.3627 H       1  UNL1        0.0512
     29 H           2.4758    1.0277    1.4912 H       1  UNL1        0.0622
     30 H           3.7646    2.9144    0.4937 H       1  UNL1        0.0633
     31 H           4.6098    2.6770   -1.8447 H       1  UNL1        0.0829
     32 H           3.0085   -1.0933   -2.2188 H       1  UNL1        0.0833
@<TRIPOS>BOND
     1     1     2    1
     2     2     3    1
     3     2     4    1
     4     2     5    1
     5     5     6    1
     6     6     7    2
     7     6     8    1
     8     8     9    1
     9     9    10    1
    10    10    11   ar
    11    11    12   ar
    12    12    13   ar
    13    13    14   ar
    14    14    15   ar
    15    15    10   ar
    16     1    16    1
    17     1    17    1
    18     1    18    1
    19     3    19    1
    20     3    20    1
    21     3    21    1
    22     4    22    1
    23     4    23    1
    24     4    24    1
    25     5    25    1
    26     8    26    1
    27     9    27    1
    28     9    28    1
    29    11    29    1
    30    12    30    1
    31    13    31    1
    32    15    32    1
