@<TRIPOS>MOLECULE
*****
 36 36 0 0 0
SMALL
GASTEIGER

@<TRIPOS>ATOM
      1 C           3.3162   -0.0311   -1.8571 C.3     1  UNL1       -0.0254
      2 C           2.9777    0.6961   -0.5474 C.3     1  UNL1        0.1054
      3 C           3.3496    2.1811   -0.7368 C.3     1  UNL1       -0.0254
      4 C           3.7935    0.1681    0.6419 C.3     1  UNL1       -0.0254
      5 O           1.5671    0.7327   -0.2809 O.3     1  UNL1       -0.4566
      6 C           0.8693   -0.4255   -0.0553 C.ar    1  UNL1        0.3216
      7 N           1.4848   -1.6137   -0.0781 N.ar    1  UNL1       -0.2020
      8 C           0.7058   -2.6893    0.1564 C.ar    1  UNL1        0.0520
      9 C          -0.6435   -2.6128    0.4080 C.ar    1  UNL1        0.0976
     10 BR         -1.6501   -4.1735    0.7246 Br      1  UNL1       -0.0432
     11 C          -1.1731   -1.3377    0.4075 C.ar    1  UNL1        0.2355
     12 O          -2.5217   -1.2118    0.6550 O.3     1  UNL1       -0.4698
     13 C          -3.1556    0.0802    0.6730 C.3     1  UNL1        0.1040
     14 C          -4.6311   -0.2464    0.9808 C.3     1  UNL1       -0.0254
     15 C          -3.1156    0.7789   -0.6937 C.3     1  UNL1       -0.0254
     16 C          -2.6382    0.9782    1.8060 C.3     1  UNL1       -0.0254
     17 N          -0.4360   -0.2380    0.1790 N.ar    1  UNL1       -0.1586
     18 H           4.3548    0.1503   -2.1552 H       1  UNL1        0.0268
     19 H           3.1941   -1.1147   -1.7759 H       1  UNL1        0.0268
     20 H           2.6584    0.3016   -2.6679 H       1  UNL1        0.0268
     21 H           2.7754    2.6249   -1.5588 H       1  UNL1        0.0268
     22 H           4.4157    2.3122   -0.9508 H       1  UNL1        0.0268
     23 H           3.1037    2.7620    0.1602 H       1  UNL1        0.0268
     24 H           3.6818   -0.9111    0.7778 H       1  UNL1        0.0268
     25 H           4.8633    0.3626    0.5074 H       1  UNL1        0.0268
     26 H           3.4690    0.6399    1.5763 H       1  UNL1        0.0268
     27 H           1.2265   -3.6423    0.1329 H       1  UNL1        0.0844
     28 H          -5.2493    0.6565    1.0269 H       1  UNL1        0.0268
     29 H          -4.7218   -0.7761    1.9367 H       1  UNL1        0.0268
     30 H          -5.0501   -0.9132    0.2177 H       1  UNL1        0.0268
     31 H          -3.4009    0.0860   -1.4932 H       1  UNL1        0.0268
     32 H          -2.1188    1.1539   -0.9416 H       1  UNL1        0.0268
     33 H          -3.7941    1.6389   -0.7200 H       1  UNL1        0.0268
     34 H          -2.5905    0.4243    2.7503 H       1  UNL1        0.0268
     35 H          -3.2847    1.8515    1.9472 H       1  UNL1        0.0268
     36 H          -1.6313    1.3574    1.6112 H       1  UNL1        0.0268
@<TRIPOS>BOND
     1     1     2    1
     2     2     3    1
     3     2     4    1
     4     2     5    1
     5     5     6    1
     6     6     7   ar
     7     7     8   ar
     8     8     9   ar
     9     9    10    1
    10     9    11   ar
    11    11    12    1
    12    12    13    1
    13    13    14    1
    14    13    15    1
    15    13    16    1
    16    11    17   ar
    17    17     6   ar
    18     1    18    1
    19     1    19    1
    20     1    20    1
    21     3    21    1
    22     3    22    1
    23     3    23    1
    24     4    24    1
    25     4    25    1
    26     4    26    1
    27     8    27    1
    28    14    28    1
    29    14    29    1
    30    14    30    1
    31    15    31    1
    32    15    32    1
    33    15    33    1
    34    16    34    1
    35    16    35    1
    36    16    36    1
