@<TRIPOS>MOLECULE
*****
 41 43 0 0 0
SMALL
GASTEIGER

@<TRIPOS>ATOM
      1 C           4.5633   -0.7139   -0.5259 C.3     1  UNL1       -0.0544
      2 C           3.5831   -1.1203    0.5728 C.3     1  UNL1        0.0299
      3 C           4.3100   -1.2510    1.9097 C.3     1  UNL1       -0.0544
      4 C           2.4362   -0.1165    0.6686 C.2     1  UNL1        0.2164
      5 O           2.2579    0.6092    1.6405 O.2     1  UNL1       -0.2755
      6 N           1.6233   -0.1066   -0.4365 N.am    1  UNL1       -0.3012
      7 C           0.4612    0.7626   -0.5521 C.3     1  UNL1        0.1098
      8 C           0.2036    0.9735   -2.0170 C.ar    1  UNL1        0.1295
      9 C          -0.2491    2.0577   -2.7429 C.ar    1  UNL1       -0.0185
     10 C          -0.2910    1.6483   -4.0964 C.ar    1  UNL1       -0.0236
     11 C           0.1376    0.3423   -4.1162 C.ar    1  UNL1        0.0922
     12 O           0.4424   -0.0800   -2.8623 O.2     1  UNL1       -0.4656
     13 C          -0.7651    0.2032    0.1489 C.ar    1  UNL1        0.0237
     14 C          -1.0020   -1.1760    0.2540 C.ar    1  UNL1       -0.0522
     15 C          -2.1480   -1.6580    0.8922 C.ar    1  UNL1       -0.0520
     16 C          -3.0918   -0.7675    1.4294 C.ar    1  UNL1        0.0040
     17 C          -4.2522   -1.2110    2.0774 C.ar    1  UNL1       -0.0510
     18 C          -5.1569   -0.2854    2.5848 C.ar    1  UNL1       -0.0430
     19 C          -4.8725    1.0583    2.4253 C.ar    1  UNL1        0.0284
     20 N          -3.7666    1.5275    1.8056 N.ar    1  UNL1       -0.2513
     21 C          -2.8900    0.6206    1.3202 C.ar    1  UNL1        0.1125
     22 C          -1.7353    1.0677    0.6772 C.ar    1  UNL1        0.1480
     23 O          -1.5621    2.4312    0.5561 O.3     1  UNL1       -0.5043
     24 H           5.4004   -1.4176   -0.5823 H       1  UNL1        0.0237
     25 H           4.0796   -0.6955   -1.5081 H       1  UNL1        0.0237
     26 H           4.9691    0.2872   -0.3419 H       1  UNL1        0.0237
     27 H           3.1488   -2.0970    0.3243 H       1  UNL1        0.0389
     28 H           4.7734   -0.3039    2.2077 H       1  UNL1        0.0237
     29 H           5.0961   -2.0112    1.8532 H       1  UNL1        0.0237
     30 H           3.6147   -1.5443    2.7038 H       1  UNL1        0.0237
     31 H           1.7830   -0.7438   -1.2047 H       1  UNL1        0.1497
     32 H           0.7421    1.7189   -0.0935 H       1  UNL1        0.0631
     33 H          -0.5216    3.0208   -2.3320 H       1  UNL1        0.0652
     34 H          -0.5996    2.2319   -4.9522 H       1  UNL1        0.0649
     35 H           0.2732   -0.3879   -4.9016 H       1  UNL1        0.1029
     36 H          -0.2948   -1.8898   -0.1620 H       1  UNL1        0.0622
     37 H          -2.2994   -2.7326    0.9649 H       1  UNL1        0.0624
     38 H          -4.4542   -2.2732    2.1890 H       1  UNL1        0.0625
     39 H          -6.0606   -0.6050    3.0914 H       1  UNL1        0.0633
     40 H          -5.5486    1.8199    2.8042 H       1  UNL1        0.0830
     41 H          -2.3377    2.8070    1.0282 H       1  UNL1        0.2922
@<TRIPOS>BOND
     1     1     2    1
     2     2     3    1
     3     2     4    1
     4     4     5    2
     5     4     6   am
     6     6     7    1
     7     7     8    1
     8     8     9   ar
     9     9    10   ar
    10    10    11   ar
    11    11    12   ar
    12     7    13    1
    13    13    14   ar
    14    14    15   ar
    15    15    16   ar
    16    16    17   ar
    17    17    18   ar
    18    18    19   ar
    19    19    20   ar
    20    20    21   ar
    21    21    22   ar
    22    22    23    1
    23    12     8   ar
    24    22    13   ar
    25    21    16   ar
    26     1    24    1
    27     1    25    1
    28     1    26    1
    29     2    27    1
    30     3    28    1
    31     3    29    1
    32     3    30    1
    33     6    31    1
    34     7    32    1
    35     9    33    1
    36    10    34    1
    37    11    35    1
    38    14    36    1
    39    15    37    1
    40    17    38    1
    41    18    39    1
    42    19    40    1
    43    23    41    1
