@<TRIPOS>MOLECULE
*****
 45 51 0 0 0
SMALL
GASTEIGER

@<TRIPOS>ATOM
      1 SI         -6.2175   -0.3043   -1.3764 Si      1  UNL1        0.0000
      2 C          -6.2159    0.9034    0.0462 C.2     1  UNL1        0.0000
      3 C          -4.9658    1.1040    0.5056 C.ar    1  UNL1        0.0000
      4 C          -4.6325    2.0999    1.5155 C.ar    1  UNL1        0.0000
      5 C          -3.3443    2.3402    1.8227 C.ar    1  UNL1        0.0000
      6 C          -2.3419    1.5453    1.1898 C.ar    1  UNL1        0.0000
      7 O          -1.0002    1.7059    1.3628 O.2     1  UNL1        0.0000
      8 C          -0.3727    0.7276    0.6626 C.ar    1  UNL1        0.0000
      9 C           0.9959    0.5771    0.5527 C.ar    1  UNL1        0.0000
     10 SI          2.2863    1.6795    1.2468 Si      1  UNL1        0.0000
     11 C           3.5727    0.5380    0.4416 C.2     1  UNL1        0.0000
     12 C           3.0021   -0.4979   -0.2103 C.2     1  UNL1        0.0000
     13 C           1.5169   -0.5138   -0.1704 C.ar    1  UNL1        0.0000
     14 C           0.6578   -1.4861   -0.7160 C.ar    1  UNL1        0.0000
     15 C           1.1307   -2.6373   -1.3854 C.ar    1  UNL1        0.0000
     16 C           0.2609   -3.6271   -1.8449 C.ar    1  UNL1        0.0000
     17 C          -1.1027   -3.5038   -1.6258 C.ar    1  UNL1        0.0000
     18 C          -1.6033   -2.3721   -0.9819 C.ar    1  UNL1        0.0000
     19 C          -0.7561   -1.3251   -0.5617 C.ar    1  UNL1        0.0000
     20 C          -1.2884   -0.1426    0.0649 C.ar    1  UNL1        0.0000
     21 C          -2.5536    0.4942    0.2896 C.ar    1  UNL1        0.0000
     22 C          -3.9026    0.2940   -0.1683 C.ar    1  UNL1        0.0000
     23 C          -4.3566   -0.4213   -1.2151 C.2     1  UNL1        0.0000
     24 C           4.9629    0.7617    0.5566 C.ar    1  UNL1        0.0000
     25 C           5.7736    1.2744    1.5540 C.ar    1  UNL1        0.0000
     26 C           7.1087    1.2707    1.0813 C.ar    1  UNL1        0.0000
     27 C           7.0863    0.7653   -0.1970 C.ar    1  UNL1        0.0000
     28 N           5.7861    0.4620   -0.5071 N.ar    1  UNL1        0.0000
     29 H          -6.8902   -1.5811   -1.0372 H       1  UNL1        0.0000
     30 H          -6.6353    0.3228   -2.6527 H       1  UNL1        0.0000
     31 H          -7.1188    1.3996    0.3649 H       1  UNL1        0.0000
     32 H          -5.4297    2.6721    1.9774 H       1  UNL1        0.0000
     33 H          -3.0524    3.0943    2.5433 H       1  UNL1        0.0000
     34 H           2.3026    3.0372    0.6398 H       1  UNL1        0.0000
     35 H           2.3770    1.6486    2.7314 H       1  UNL1        0.0000
     36 H           3.5548   -1.2811   -0.7081 H       1  UNL1        0.0000
     37 H           2.1942   -2.7939   -1.5425 H       1  UNL1        0.0000
     38 H           0.6555   -4.5076   -2.3454 H       1  UNL1        0.0000
     39 H          -1.7796   -4.2940   -1.9400 H       1  UNL1        0.0000
     40 H          -2.6633   -2.3496   -0.7597 H       1  UNL1        0.0000
     41 H          -3.7903   -0.9820   -1.9375 H       1  UNL1        0.0000
     42 H           5.4462    1.6093    2.5302 H       1  UNL1        0.0000
     43 H           7.9884    1.6033    1.6168 H       1  UNL1        0.0000
     44 H           7.8792    0.5974   -0.9131 H       1  UNL1        0.0000
     45 H           5.4744    0.0928   -1.3951 H       1  UNL1        0.0000
@<TRIPOS>BOND
     1     1     2    1
     2     2     3    2
     3     3     4   ar
     4     4     5   ar
     5     5     6   ar
     6     6     7   ar
     7     7     8   ar
     8     8     9   ar
     9     9    10    1
    10    10    11    1
    11    11    12    2
    12    12    13    1
    13    13    14   ar
    14    14    15   ar
    15    15    16   ar
    16    16    17   ar
    17    17    18   ar
    18    18    19   ar
    19    19    20   ar
    20    20    21   ar
    21    21    22   ar
    22    22    23    2
    23    11    24    1
    24    24    25   ar
    25    25    26   ar
    26    26    27   ar
    27    27    28   ar
    28    23     1    1
    29    28    24   ar
    30    22     3   ar
    31    21     6   ar
    32    20     8   ar
    33    13     9   ar
    34    19    14   ar
    35     1    29    1
    36     1    30    1
    37     2    31    1
    38     4    32    1
    39     5    33    1
    40    10    34    1
    41    10    35    1
    42    12    36    1
    43    15    37    1
    44    16    38    1
    45    17    39    1
    46    18    40    1
    47    23    41    1
    48    25    42    1
    49    26    43    1
    50    27    44    1
    51    28    45    1
