@<TRIPOS>MOLECULE
*****
 44 45 0 0 0
SMALL
GASTEIGER

@<TRIPOS>ATOM
      1 C           1.2074    1.7445    2.0631 C.3     1  UNL1       -0.0588
      2 C           1.0598    2.1229    0.5850 C.3     1  UNL1       -0.0008
      3 C           2.0792    3.2129    0.2372 C.3     1  UNL1       -0.0588
      4 C           1.2255    0.9056   -0.3557 C.3     1  UNL1        0.1810
      5 O           2.5002    0.3018   -0.1160 O.3     1  UNL1       -0.4460
      6 C           2.8959   -0.5937   -1.0657 C.2     1  UNL1        0.3756
      7 O           2.2903   -0.8071   -2.1106 O.2     1  UNL1       -0.2415
      8 C           4.1381   -1.2215   -0.6810 C.ar    1  UNL1        0.2112
      9 C           4.8813   -2.2048   -1.3102 C.ar    1  UNL1       -0.0093
     10 C           6.0149   -2.4473   -0.4981 C.ar    1  UNL1       -0.0231
     11 C           5.9016   -1.5986    0.5766 C.ar    1  UNL1        0.0929
     12 O           4.7741   -0.8499    0.4762 O.2     1  UNL1       -0.4564
     13 C           0.0664   -0.0973   -0.1586 C.2     1  UNL1        0.2544
     14 O           0.2150   -1.1850    0.3935 O.2     1  UNL1       -0.2717
     15 N          -1.1505    0.3348   -0.6545 N.am    1  UNL1       -0.3094
     16 C          -2.3710   -0.4343   -0.4587 C.3     1  UNL1        0.0232
     17 C          -2.9683   -0.1728    0.9265 C.3     1  UNL1       -0.0345
     18 C          -4.1967   -1.0464    1.1919 C.3     1  UNL1       -0.0514
     19 C          -4.9570   -1.4365   -0.0766 C.3     1  UNL1       -0.0529
     20 C          -4.8418   -0.3687   -1.1549 C.3     1  UNL1       -0.0514
     21 C          -3.3884   -0.1225   -1.5682 C.3     1  UNL1       -0.0345
     22 H           1.0621    2.6234    2.7007 H       1  UNL1        0.0234
     23 H           0.4610    1.0001    2.3577 H       1  UNL1        0.0234
     24 H           2.2001    1.3364    2.2803 H       1  UNL1        0.0234
     25 H           0.0587    2.5507    0.4488 H       1  UNL1        0.0336
     26 H           1.9253    4.0998    0.8613 H       1  UNL1        0.0234
     27 H           3.1075    2.8688    0.3908 H       1  UNL1        0.0234
     28 H           1.9762    3.5208   -0.8087 H       1  UNL1        0.0234
     29 H           1.1848    1.2657   -1.3933 H       1  UNL1        0.0835
     30 H           4.6205   -2.6857   -2.2436 H       1  UNL1        0.0657
     31 H           6.8139   -3.1542   -0.6723 H       1  UNL1        0.0649
     32 H           6.5067   -1.4147    1.4537 H       1  UNL1        0.1029
     33 H          -1.2335    1.2873   -0.9845 H       1  UNL1        0.1491
     34 H          -2.1039   -1.4977   -0.5208 H       1  UNL1        0.0498
     35 H          -3.2516    0.8855    1.0047 H       1  UNL1        0.0283
     36 H          -2.2261   -0.3425    1.7160 H       1  UNL1        0.0283
     37 H          -4.8661   -0.5113    1.8765 H       1  UNL1        0.0266
     38 H          -3.8945   -1.9619    1.7147 H       1  UNL1        0.0266
     39 H          -4.5584   -2.3828   -0.4635 H       1  UNL1        0.0265
     40 H          -6.0097   -1.6188    0.1675 H       1  UNL1        0.0265
     41 H          -5.4309   -0.6516   -2.0346 H       1  UNL1        0.0266
     42 H          -5.2739    0.5674   -0.7788 H       1  UNL1        0.0266
     43 H          -3.2986    0.9179   -1.9061 H       1  UNL1        0.0283
     44 H          -3.1458   -0.7384   -2.4439 H       1  UNL1        0.0283
@<TRIPOS>BOND
     1     1     2    1
     2     2     3    1
     3     2     4    1
     4     4     5    1
     5     5     6    1
     6     6     7    2
     7     6     8    1
     8     8     9   ar
     9     9    10   ar
    10    10    11   ar
    11    11    12   ar
    12     4    13    1
    13    13    14    2
    14    13    15   am
    15    15    16    1
    16    16    17    1
    17    17    18    1
    18    18    19    1
    19    19    20    1
    20    20    21    1
    21    12     8   ar
    22    21    16    1
    23     1    22    1
    24     1    23    1
    25     1    24    1
    26     2    25    1
    27     3    26    1
    28     3    27    1
    29     3    28    1
    30     4    29    1
    31     9    30    1
    32    10    31    1
    33    11    32    1
    34    15    33    1
    35    16    34    1
    36    17    35    1
    37    17    36    1
    38    18    37    1
    39    18    38    1
    40    19    39    1
    41    19    40    1
    42    20    41    1
    43    20    42    1
    44    21    43    1
    45    21    44    1
