@<TRIPOS>MOLECULE
*****
 33 34 0 0 0
SMALL
GASTEIGER

@<TRIPOS>ATOM
      1 C          -2.6428    1.1847    1.9985 C.3     1  UNL1       -0.0586
      2 C          -1.6800    0.8285    0.8561 C.3     1  UNL1       -0.0198
      3 C          -1.9827    1.6973   -0.3679 C.3     1  UNL1       -0.0586
      4 C          -1.6611   -0.6496    0.4640 C.ar    1  UNL1       -0.0236
      5 C          -2.8349   -1.4207    0.6027 C.ar    1  UNL1       -0.0566
      6 C          -2.8630   -2.7733    0.2666 C.ar    1  UNL1       -0.0614
      7 C          -1.7196   -3.3837   -0.2249 C.ar    1  UNL1       -0.0600
      8 C          -0.5512   -2.6396   -0.3933 C.ar    1  UNL1       -0.0402
      9 C          -0.5031   -1.2766   -0.0676 C.ar    1  UNL1        0.0372
     10 N           0.6682   -0.5151   -0.2748 N.am    1  UNL1       -0.2800
     11 C           1.8987   -0.9204   -0.7583 C.2     1  UNL1        0.2681
     12 O           2.2425   -2.0468   -1.0929 O.2     1  UNL1       -0.2681
     13 C           2.8762    0.2032   -0.8547 C.ar    1  UNL1        0.1436
     14 C           4.1634   -0.0233   -1.3177 C.ar    1  UNL1        0.0580
     15 N           5.0796    0.9743   -1.4198 N.ar    1  UNL1       -0.2595
     16 C           4.6485    2.1995   -1.0394 C.ar    1  UNL1        0.0457
     17 C           3.3606    2.4261   -0.5764 C.ar    1  UNL1        0.0465
     18 N           2.4381    1.4408   -0.4696 N.ar    1  UNL1       -0.2473
     19 H          -2.4867    0.5321    2.8644 H       1  UNL1        0.0235
     20 H          -2.4763    2.2173    2.3260 H       1  UNL1        0.0235
     21 H          -3.6923    1.1101    1.6951 H       1  UNL1        0.0235
     22 H          -0.6900    1.0969    1.2433 H       1  UNL1        0.0344
     23 H          -1.9475    2.7606   -0.1074 H       1  UNL1        0.0235
     24 H          -2.9781    1.4821   -0.7728 H       1  UNL1        0.0235
     25 H          -1.2568    1.5287   -1.1706 H       1  UNL1        0.0235
     26 H          -3.7553   -0.9781    0.9743 H       1  UNL1        0.0621
     27 H          -3.7781   -3.3467    0.3882 H       1  UNL1        0.0618
     28 H          -1.7311   -4.4378   -0.4888 H       1  UNL1        0.0618
     29 H           0.3122   -3.1598   -0.7953 H       1  UNL1        0.0636
     30 H           0.6331    0.4786   -0.0699 H       1  UNL1        0.1552
     31 H           4.4990   -1.0097   -1.6204 H       1  UNL1        0.0853
     32 H           5.3730    3.0028   -1.1175 H       1  UNL1        0.0845
     33 H           3.0375    3.4174   -0.2771 H       1  UNL1        0.0845
@<TRIPOS>BOND
     1     1     2    1
     2     2     3    1
     3     2     4    1
     4     4     5   ar
     5     5     6   ar
     6     6     7   ar
     7     7     8   ar
     8     8     9   ar
     9     9    10    1
    10    10    11   am
    11    11    12    2
    12    11    13    1
    13    13    14   ar
    14    14    15   ar
    15    15    16   ar
    16    16    17   ar
    17    17    18   ar
    18     9     4   ar
    19    18    13   ar
    20     1    19    1
    21     1    20    1
    22     1    21    1
    23     2    22    1
    24     3    23    1
    25     3    24    1
    26     3    25    1
    27     5    26    1
    28     6    27    1
    29     7    28    1
    30     8    29    1
    31    10    30    1
    32    14    31    1
    33    16    32    1
    34    17    33    1
