@<TRIPOS>MOLECULE
*****
 43 45 0 0 0
SMALL
GASTEIGER

@<TRIPOS>ATOM
      1 C          -3.8711   -2.5441   -0.3483 C.3     1  UNL1       -0.0557
      2 C          -3.0550   -1.7583    0.6768 C.3     1  UNL1        0.0133
      3 C          -3.8627   -1.5063    1.9493 C.3     1  UNL1       -0.0557
      4 C          -2.5569   -0.4592    0.0839 C.ar    1  UNL1        0.1335
      5 N          -1.2317   -0.3094   -0.0418 N.ar    1  UNL1       -0.2249
      6 C          -0.7967    0.8466   -0.5829 C.ar    1  UNL1        0.1086
      7 S           0.9867    1.0117   -0.7063 S.3     1  UNL1       -0.0959
      8 C           1.4733   -0.7435   -0.6815 C.3     1  UNL1        0.0764
      9 C           2.9739   -0.8558   -0.8920 C.2     1  UNL1        0.2258
     10 O           3.4396   -1.0212   -2.0226 O.2     1  UNL1       -0.2747
     11 N           3.7901   -0.7665    0.2170 N.am    1  UNL1       -0.3008
     12 C           5.2361   -0.8116    0.0875 C.3     1  UNL1        0.0147
     13 C           5.7541   -0.3075    1.4267 C.3     1  UNL1       -0.0357
     14 C           4.6696   -0.7516    2.3993 C.3     1  UNL1       -0.0357
     15 C           3.3898   -0.5480    1.5993 C.3     1  UNL1        0.0147
     16 C          -1.6561    1.8781   -0.9958 C.ar    1  UNL1        0.0323
     17 C          -1.2718    3.1242   -1.5648 C.ar    1  UNL1       -0.0500
     18 C          -2.2261    4.0680   -1.9382 C.ar    1  UNL1       -0.0610
     19 C          -3.5709    3.7853   -1.7505 C.ar    1  UNL1       -0.0597
     20 C          -3.9488    2.5618   -1.1920 C.ar    1  UNL1       -0.0356
     21 C          -3.0158    1.6044   -0.8120 C.ar    1  UNL1        0.0756
     22 N          -3.4629    0.4599   -0.2852 N.ar    1  UNL1       -0.2317
     23 H          -4.1808   -3.5109    0.0628 H       1  UNL1        0.0236
     24 H          -4.7749   -2.0021   -0.6490 H       1  UNL1        0.0236
     25 H          -3.2829   -2.7362   -1.2527 H       1  UNL1        0.0236
     26 H          -2.1831   -2.3672    0.9498 H       1  UNL1        0.0374
     27 H          -4.7713   -0.9285    1.7458 H       1  UNL1        0.0236
     28 H          -3.2717   -0.9482    2.6842 H       1  UNL1        0.0236
     29 H          -4.1641   -2.4532    2.4095 H       1  UNL1        0.0236
     30 H           0.9790   -1.2779   -1.5005 H       1  UNL1        0.0475
     31 H           1.1795   -1.2282    0.2522 H       1  UNL1        0.0475
     32 H           5.5235   -1.8545   -0.0855 H       1  UNL1        0.0464
     33 H           5.5787   -0.2030   -0.7548 H       1  UNL1        0.0464
     34 H           6.7417   -0.7058    1.6743 H       1  UNL1        0.0281
     35 H           5.8165    0.7873    1.4174 H       1  UNL1        0.0281
     36 H           4.6757   -0.1873    3.3357 H       1  UNL1        0.0281
     37 H           4.7986   -1.8144    2.6369 H       1  UNL1        0.0281
     38 H           2.6017   -1.2427    1.9001 H       1  UNL1        0.0464
     39 H           3.0238    0.4797    1.6913 H       1  UNL1        0.0464
     40 H          -0.2219    3.3627   -1.7223 H       1  UNL1        0.0625
     41 H          -1.9185    5.0154   -2.3735 H       1  UNL1        0.0618
     42 H          -4.3295    4.5092   -2.0368 H       1  UNL1        0.0618
     43 H          -5.0064    2.3487   -1.0499 H       1  UNL1        0.0639
@<TRIPOS>BOND
     1     1     2    1
     2     2     3    1
     3     2     4    1
     4     4     5   ar
     5     5     6   ar
     6     6     7    1
     7     7     8    1
     8     8     9    1
     9     9    10    2
    10     9    11   am
    11    11    12    1
    12    12    13    1
    13    13    14    1
    14    14    15    1
    15     6    16   ar
    16    16    17   ar
    17    17    18   ar
    18    18    19   ar
    19    19    20   ar
    20    20    21   ar
    21    21    22   ar
    22    22     4   ar
    23    15    11    1
    24    21    16   ar
    25     1    23    1
    26     1    24    1
    27     1    25    1
    28     2    26    1
    29     3    27    1
    30     3    28    1
    31     3    29    1
    32     8    30    1
    33     8    31    1
    34    12    32    1
    35    12    33    1
    36    13    34    1
    37    13    35    1
    38    14    36    1
    39    14    37    1
    40    15    38    1
    41    15    39    1
    42    17    40    1
    43    18    41    1
    44    19    42    1
    45    20    43    1
