@<TRIPOS>MOLECULE
*****
 34 35 0 0 0
SMALL
GASTEIGER

@<TRIPOS>ATOM
      1 C          -5.6988    0.0111    0.1663 C.3     1  UNL1       -0.0623
      2 C          -4.2393    0.2140   -0.2475 C.3     1  UNL1       -0.0398
      3 C          -3.7076    1.5145    0.3618 C.3     1  UNL1       -0.0623
      4 C          -3.4013   -1.0061    0.1745 C.3     1  UNL1        0.0105
      5 C          -2.0322   -0.9894   -0.3977 C.ar    1  UNL1        0.1383
      6 C          -0.7815   -0.7426    0.1126 C.ar    1  UNL1        0.0128
      7 C           0.1040   -0.9040   -0.9923 C.ar    1  UNL1        0.1681
      8 C           1.5724   -0.7637   -1.0543 C.2     1  UNL1        0.2699
      9 O           2.2137   -1.1119   -2.0407 O.2     1  UNL1       -0.2681
     10 N           2.1360   -0.2042    0.0839 N.am    1  UNL1       -0.2789
     11 C           3.5048    0.0480    0.3542 C.ar    1  UNL1        0.0535
     12 C           4.5433   -0.2890   -0.5194 C.ar    1  UNL1       -0.0207
     13 C           5.8697   -0.0077   -0.1769 C.ar    1  UNL1        0.0428
     14 CL          7.1400   -0.4277   -1.2604 Cl      1  UNL1       -0.0835
     15 C           6.1812    0.6086    1.0335 C.ar    1  UNL1       -0.0419
     16 C           5.1581    0.9486    1.9159 C.ar    1  UNL1       -0.0402
     17 C           3.8316    0.6691    1.5778 C.ar    1  UNL1        0.0622
     18 CL          2.5939    1.1076    2.7086 Cl      1  UNL1       -0.0816
     19 N          -0.5960   -1.2398   -2.0904 N.ar    1  UNL1       -0.0734
     20 O          -1.9211   -1.2898   -1.7157 O.2     1  UNL1       -0.3589
     21 H          -6.3148    0.8598   -0.1493 H       1  UNL1        0.0232
     22 H          -5.7936   -0.0914    1.2528 H       1  UNL1        0.0232
     23 H          -6.1129   -0.8907   -0.2971 H       1  UNL1        0.0232
     24 H          -4.2111    0.3138   -1.3405 H       1  UNL1        0.0300
     25 H          -4.3411    2.3620    0.0784 H       1  UNL1        0.0232
     26 H          -2.6941    1.7338    0.0116 H       1  UNL1        0.0232
     27 H          -3.6859    1.4609    1.4556 H       1  UNL1        0.0232
     28 H          -3.3420   -1.0614    1.2688 H       1  UNL1        0.0347
     29 H          -3.8989   -1.9270   -0.1557 H       1  UNL1        0.0347
     30 H          -0.5551   -0.4921    1.1374 H       1  UNL1        0.0676
     31 H           1.5087    0.1063    0.8152 H       1  UNL1        0.1552
     32 H           4.3549   -0.7724   -1.4728 H       1  UNL1        0.0651
     33 H           7.2149    0.8242    1.2925 H       1  UNL1        0.0633
     34 H           5.4000    1.4286    2.8609 H       1  UNL1        0.0633
@<TRIPOS>BOND
     1     1     2    1
     2     2     3    1
     3     2     4    1
     4     4     5    1
     5     5     6   ar
     6     6     7   ar
     7     7     8    1
     8     8     9    2
     9     8    10   am
    10    10    11    1
    11    11    12   ar
    12    12    13   ar
    13    13    14    1
    14    13    15   ar
    15    15    16   ar
    16    16    17   ar
    17    17    18    1
    18     7    19   ar
    19    19    20   ar
    20    20     5   ar
    21    17    11   ar
    22     1    21    1
    23     1    22    1
    24     1    23    1
    25     2    24    1
    26     3    25    1
    27     3    26    1
    28     3    27    1
    29     4    28    1
    30     4    29    1
    31     6    30    1
    32    10    31    1
    33    12    32    1
    34    15    33    1
    35    16    34    1
