@<TRIPOS>MOLECULE
*****
 38 38 0 0 0
SMALL
GASTEIGER

@<TRIPOS>ATOM
      1 C          -6.0528   -0.9288    0.3918 C.3     1  UNL1       -0.0612
      2 C          -4.8358   -0.0295    0.6163 C.3     1  UNL1       -0.0311
      3 C          -5.1262    1.3747    0.0811 C.3     1  UNL1       -0.0612
      4 C          -3.5975   -0.6480   -0.0468 C.3     1  UNL1        0.0139
      5 N          -2.3649    0.0030    0.3597 N.am    1  UNL1       -0.3147
      6 C          -1.1459   -0.5868    0.1006 C.2     1  UNL1        0.2219
      7 O          -1.0242   -1.7191   -0.3619 O.2     1  UNL1       -0.2753
      8 C           0.0510    0.2487    0.4695 C.3     1  UNL1        0.1020
      9 C           1.1453    0.2438   -0.5696 C.2     1  UNL1        0.2410
     10 O           1.6405    1.3002   -0.9630 O.2     1  UNL1       -0.2736
     11 N           1.5637   -1.0346   -0.9477 N.am    1  UNL1       -0.2066
     12 N           2.4274   -1.1915   -2.0022 N.2     1  UNL1       -0.1877
     13 C           3.6344   -0.7119   -1.9039 C.2     1  UNL1        0.0528
     14 C           4.3398   -0.1870   -0.7164 C.ar    1  UNL1       -0.0054
     15 C           4.2243   -0.8073    0.5318 C.ar    1  UNL1       -0.0521
     16 C           4.9366   -0.3072    1.6240 C.ar    1  UNL1       -0.0472
     17 C           5.7675    0.8013    1.4582 C.ar    1  UNL1        0.0179
     18 BR          6.7295    1.4791    2.9378 Br      1  UNL1       -0.0503
     19 C           5.9002    1.4102    0.2099 C.ar    1  UNL1       -0.0472
     20 C           5.1904    0.9096   -0.8840 C.ar    1  UNL1       -0.0521
     21 H          -5.8822   -1.9263    0.8105 H       1  UNL1        0.0233
     22 H          -6.2722   -1.0419   -0.6755 H       1  UNL1        0.0233
     23 H          -6.9407   -0.5115    0.8784 H       1  UNL1        0.0233
     24 H          -4.6625    0.0453    1.6975 H       1  UNL1        0.0311
     25 H          -5.2848    1.3615   -1.0027 H       1  UNL1        0.0233
     26 H          -4.3026    2.0627    0.2946 H       1  UNL1        0.0233
     27 H          -6.0268    1.7880    0.5481 H       1  UNL1        0.0233
     28 H          -3.5174   -1.7095    0.2167 H       1  UNL1        0.0464
     29 H          -3.6608   -0.5868   -1.1397 H       1  UNL1        0.0464
     30 H          -2.3823    1.0080    0.4813 H       1  UNL1        0.1487
     31 H          -0.2511    1.2888    0.6361 H       1  UNL1        0.0454
     32 H           0.4600   -0.1306    1.4124 H       1  UNL1        0.0454
     33 H           0.8119   -1.7328   -0.9475 H       1  UNL1        0.1772
     34 H           4.2367   -0.7239   -2.8291 H       1  UNL1        0.0851
     35 H           3.5967   -1.6857    0.6556 H       1  UNL1        0.0624
     36 H           4.8422   -0.7901    2.5930 H       1  UNL1        0.0629
     37 H           6.5474    2.2737    0.0794 H       1  UNL1        0.0629
     38 H           5.2857    1.3921   -1.8536 H       1  UNL1        0.0624
@<TRIPOS>BOND
     1     1     2    1
     2     2     3    1
     3     2     4    1
     4     4     5    1
     5     5     6   am
     6     6     7    2
     7     6     8    1
     8     8     9    1
     9     9    10    2
    10     9    11   am
    11    11    12    1
    12    12    13    2
    13    13    14    1
    14    14    15   ar
    15    15    16   ar
    16    16    17   ar
    17    17    18    1
    18    17    19   ar
    19    19    20   ar
    20    20    14   ar
    21     1    21    1
    22     1    22    1
    23     1    23    1
    24     2    24    1
    25     3    25    1
    26     3    26    1
    27     3    27    1
    28     4    28    1
    29     4    29    1
    30     5    30    1
    31     8    31    1
    32     8    32    1
    33    11    33    1
    34    13    34    1
    35    15    35    1
    36    16    36    1
    37    19    37    1
    38    20    38    1
