@<TRIPOS>MOLECULE
*****
 41 42 0 0 0
SMALL
GASTEIGER

@<TRIPOS>ATOM
      1 C           4.0918    1.7071   -2.1055 C.3     1  UNL1       -0.0596
      2 C           4.9062    0.7532   -1.2299 C.3     1  UNL1       -0.0123
      3 C           4.6518   -0.6924   -1.6580 C.3     1  UNL1       -0.0596
      4 C           4.6042    0.9658    0.2606 C.3     1  UNL1        0.0966
      5 O           3.2104    0.7754    0.5371 O.3     1  UNL1       -0.4470
      6 C           2.8741   -0.3469    1.2224 C.2     1  UNL1        0.4359
      7 O           3.6112   -1.2328    1.6338 O.2     1  UNL1       -0.2212
      8 N           1.4777   -0.4176    1.4244 N.ar    1  UNL1       -0.1720
      9 C           0.7914   -1.4254    2.0743 C.ar    1  UNL1        0.0382
     10 C          -0.5376   -1.0876    2.0501 C.ar    1  UNL1       -0.0111
     11 C          -0.6001    0.1454    1.3496 C.ar    1  UNL1        0.1478
     12 C          -1.8002    0.9577    1.0709 C.2     1  UNL1        0.2667
     13 O          -1.8450    2.1503    1.3731 O.2     1  UNL1       -0.2682
     14 N          -2.8978    0.3079    0.4865 N.am    1  UNL1       -0.2962
     15 C          -4.1340    1.0700    0.3340 C.3     1  UNL1        0.0150
     16 C          -5.3417    0.1545    0.1804 C.3     1  UNL1       -0.0371
     17 C          -5.2029   -0.7856   -1.0173 C.3     1  UNL1       -0.0502
     18 C          -3.7487   -1.0417   -1.4116 C.3     1  UNL1       -0.0371
     19 C          -2.8070   -0.9761   -0.2132 C.3     1  UNL1        0.0150
     20 N           0.6261    0.5436    0.9671 N.ar    1  UNL1       -0.1567
     21 H           3.0168    1.5149   -2.0228 H       1  UNL1        0.0233
     22 H           4.3715    1.5980   -3.1588 H       1  UNL1        0.0233
     23 H           4.2740    2.7480   -1.8183 H       1  UNL1        0.0233
     24 H           5.9701    0.9703   -1.3882 H       1  UNL1        0.0328
     25 H           4.9601   -0.8457   -2.6979 H       1  UNL1        0.0233
     26 H           3.5922   -0.9578   -1.5827 H       1  UNL1        0.0233
     27 H           5.2236   -1.3883   -1.0353 H       1  UNL1        0.0233
     28 H           4.8433    1.9982    0.5400 H       1  UNL1        0.0701
     29 H           5.2406    0.3206    0.8777 H       1  UNL1        0.0701
     30 H           1.3241   -2.2663    2.4974 H       1  UNL1        0.0833
     31 H          -1.3579   -1.6373    2.4905 H       1  UNL1        0.0656
     32 H          -4.2706    1.7225    1.2038 H       1  UNL1        0.0465
     33 H          -4.0215    1.7148   -0.5460 H       1  UNL1        0.0465
     34 H          -6.2599    0.7447    0.0857 H       1  UNL1        0.0280
     35 H          -5.4483   -0.4484    1.0917 H       1  UNL1        0.0280
     36 H          -5.7354   -0.3704   -1.8814 H       1  UNL1        0.0266
     37 H          -5.6982   -1.7351   -0.7808 H       1  UNL1        0.0266
     38 H          -3.4426   -0.2847   -2.1454 H       1  UNL1        0.0280
     39 H          -3.6646   -2.0137   -1.9104 H       1  UNL1        0.0280
     40 H          -3.0652   -1.7588    0.5092 H       1  UNL1        0.0465
     41 H          -1.7820   -1.1502   -0.5546 H       1  UNL1        0.0465
@<TRIPOS>BOND
     1     1     2    1
     2     2     3    1
     3     2     4    1
     4     4     5    1
     5     5     6    1
     6     6     7    2
     7     6     8   am
     8     8     9   ar
     9     9    10   ar
    10    10    11   ar
    11    11    12    1
    12    12    13    2
    13    12    14   am
    14    14    15    1
    15    15    16    1
    16    16    17    1
    17    17    18    1
    18    18    19    1
    19    11    20   ar
    20    20     8   ar
    21    19    14    1
    22     1    21    1
    23     1    22    1
    24     1    23    1
    25     2    24    1
    26     3    25    1
    27     3    26    1
    28     3    27    1
    29     4    28    1
    30     4    29    1
    31     9    30    1
    32    10    31    1
    33    15    32    1
    34    15    33    1
    35    16    34    1
    36    16    35    1
    37    17    36    1
    38    17    37    1
    39    18    38    1
    40    18    39    1
    41    19    40    1
    42    19    41    1
