@<TRIPOS>MOLECULE
*****
 35 36 0 0 0
SMALL
GASTEIGER

@<TRIPOS>ATOM
      1 C           4.1961   -0.6229    0.1427 C.3     1  UNL1       -0.0619
      2 C           2.9408    0.2541    0.1786 C.3     1  UNL1       -0.0373
      3 C           3.2694    1.5891    0.8531 C.3     1  UNL1       -0.0619
      4 C           2.3985    0.4301   -1.2517 C.3     1  UNL1        0.0034
      5 S           0.8005    1.3064   -1.3373 S.3     1  UNL1       -0.0874
      6 C          -0.2990    0.0692   -0.8173 C.ar    1  UNL1        0.1704
      7 N           0.0263   -1.1833   -0.6053 N.ar    1  UNL1       -0.2218
      8 C          -1.1272   -1.7890   -0.1782 C.ar    1  UNL1        0.0902
      9 C          -1.3462   -3.1225    0.1977 C.ar    1  UNL1       -0.0342
     10 C          -2.6260   -3.5030    0.6180 C.ar    1  UNL1       -0.0596
     11 C          -3.6664   -2.5738    0.6661 C.ar    1  UNL1       -0.0597
     12 C          -3.4680   -1.2395    0.2922 C.ar    1  UNL1       -0.0360
     13 C          -2.1825   -0.8813   -0.1325 C.ar    1  UNL1        0.0699
     14 N          -1.6276    0.3043   -0.5672 N.ar    1  UNL1       -0.3097
     15 C          -2.3490    1.5501   -0.7288 C.3     1  UNL1        0.1017
     16 C          -2.3766    2.3436    0.5562 C.2     1  UNL1        0.2304
     17 N          -1.2785    3.1162    0.8117 N.am    1  UNL1       -0.3279
     18 O          -3.3253    2.3302    1.3345 O.2     1  UNL1       -0.2741
     19 H           4.5835   -0.7902    1.1534 H       1  UNL1        0.0233
     20 H           3.9736   -1.6024   -0.2940 H       1  UNL1        0.0233
     21 H           4.9896   -0.1579   -0.4521 H       1  UNL1        0.0233
     22 H           2.1980   -0.2667    0.7950 H       1  UNL1        0.0303
     23 H           3.7098    1.4240    1.8426 H       1  UNL1        0.0233
     24 H           3.9850    2.1680    0.2594 H       1  UNL1        0.0233
     25 H           2.3729    2.1998    0.9968 H       1  UNL1        0.0233
     26 H           3.1132    1.0135   -1.8440 H       1  UNL1        0.0383
     27 H           2.3008   -0.5390   -1.7539 H       1  UNL1        0.0383
     28 H          -0.5317   -3.8374    0.1647 H       1  UNL1        0.0639
     29 H          -2.8077   -4.5331    0.9154 H       1  UNL1        0.0618
     30 H          -4.6511   -2.8902    1.0051 H       1  UNL1        0.0618
     31 H          -4.2799   -0.5209    0.3455 H       1  UNL1        0.0639
     32 H          -1.9026    2.1373   -1.5365 H       1  UNL1        0.0588
     33 H          -3.3752    1.3239   -1.0371 H       1  UNL1        0.0588
     34 H          -0.3881    2.9287    0.3637 H       1  UNL1        0.1450
     35 H          -1.2495    3.5644    1.7198 H       1  UNL1        0.1450
@<TRIPOS>BOND
     1     1     2    1
     2     2     3    1
     3     2     4    1
     4     4     5    1
     5     5     6    1
     6     6     7   ar
     7     7     8   ar
     8     8     9   ar
     9     9    10   ar
    10    10    11   ar
    11    11    12   ar
    12    12    13   ar
    13    13    14   ar
    14    14    15    1
    15    15    16    1
    16    16    17   am
    17    16    18    2
    18    14     6   ar
    19    13     8   ar
    20     1    19    1
    21     1    20    1
    22     1    21    1
    23     2    22    1
    24     3    23    1
    25     3    24    1
    26     3    25    1
    27     4    26    1
    28     4    27    1
    29     9    28    1
    30    10    29    1
    31    11    30    1
    32    12    31    1
    33    15    32    1
    34    15    33    1
    35    17    34    1
    36    17    35    1
