@<TRIPOS>MOLECULE
*****
 32 34 0 0 0
SMALL
GASTEIGER

@<TRIPOS>ATOM
      1 C          -1.2097   -1.8232   -1.3480 C.3     1  UNL1       -0.0444
      2 C          -0.6837   -1.3606    0.0106 C.3     1  UNL1        0.0309
      3 C          -1.5203   -1.9110    1.1679 C.3     1  UNL1       -0.0444
      4 N          -0.5184    0.0918    0.0746 N.ar    1  UNL1       -0.3209
      5 C           0.6880    0.7667    0.2118 C.ar    1  UNL1        0.1436
      6 C           2.0146    0.1589    0.2131 C.ar    1  UNL1        0.0356
      7 C           2.8575    0.2946    1.3175 C.ar    1  UNL1       -0.0482
      8 C           4.1210   -0.2922    1.2996 C.ar    1  UNL1       -0.0429
      9 C           4.5035   -0.9943    0.1678 C.ar    1  UNL1        0.0276
     10 N           3.7243   -1.1364   -0.9264 N.ar    1  UNL1       -0.2626
     11 C           2.5082   -0.5400   -0.8842 C.ar    1  UNL1        0.0382
     12 N           0.4775    2.0582    0.3803 N.ar    1  UNL1       -0.2259
     13 C          -0.8752    2.2464    0.2730 C.ar    1  UNL1        0.1077
     14 C          -1.6247    3.4250    0.3395 C.ar    1  UNL1        0.0550
     15 N          -2.9759    3.3905    0.2019 N.ar    1  UNL1       -0.2610
     16 C          -3.5745    2.1960   -0.0003 C.ar    1  UNL1        0.0296
     17 C          -2.9174    0.9742   -0.0780 C.ar    1  UNL1       -0.0179
     18 C          -1.5294    1.0341    0.0682 C.ar    1  UNL1        0.0722
     19 H          -0.5917   -1.4297   -2.1623 H       1  UNL1        0.0249
     20 H          -1.1945   -2.9165   -1.4128 H       1  UNL1        0.0249
     21 H          -2.2385   -1.4965   -1.5254 H       1  UNL1        0.0249
     22 H           0.3113   -1.8004    0.1321 H       1  UNL1        0.0523
     23 H          -1.1368   -1.5555    2.1306 H       1  UNL1        0.0249
     24 H          -2.5716   -1.6190    1.0985 H       1  UNL1        0.0249
     25 H          -1.4853   -3.0059    1.1763 H       1  UNL1        0.0249
     26 H           2.5335    0.8621    2.1870 H       1  UNL1        0.0626
     27 H           4.7919   -0.1979    2.1461 H       1  UNL1        0.0633
     28 H           5.4788   -1.4693    0.1072 H       1  UNL1        0.0829
     29 H           1.9254   -0.6438   -1.7954 H       1  UNL1        0.0837
     30 H          -1.1691    4.3942    0.4975 H       1  UNL1        0.0852
     31 H          -4.6562    2.2442   -0.1038 H       1  UNL1        0.0830
     32 H          -3.4630    0.0556   -0.2421 H       1  UNL1        0.0654
@<TRIPOS>BOND
     1     1     2    1
     2     2     3    1
     3     2     4    1
     4     4     5   ar
     5     5     6    1
     6     6     7   ar
     7     7     8   ar
     8     8     9   ar
     9     9    10   ar
    10    10    11   ar
    11     5    12   ar
    12    12    13   ar
    13    13    14   ar
    14    14    15   ar
    15    15    16   ar
    16    16    17   ar
    17    17    18   ar
    18    18     4   ar
    19    11     6   ar
    20    18    13   ar
    21     1    19    1
    22     1    20    1
    23     1    21    1
    24     2    22    1
    25     3    23    1
    26     3    24    1
    27     3    25    1
    28     7    26    1
    29     8    27    1
    30     9    28    1
    31    11    29    1
    32    14    30    1
    33    16    31    1
    34    17    32    1
