@<TRIPOS>MOLECULE
*****
 33 34 0 0 0
SMALL
GASTEIGER

@<TRIPOS>ATOM
      1 C          -0.5693    2.7909    0.5017 C.3     1  UNL1       -0.0444
      2 C          -0.8304    1.6852   -0.5237 C.3     1  UNL1        0.0320
      3 C          -0.0386    1.8943   -1.8149 C.3     1  UNL1       -0.0444
      4 N          -0.6666    0.3368    0.0116 N.ar    1  UNL1       -0.3093
      5 C           0.4317   -0.1968    0.6608 C.ar    1  UNL1        0.1969
      6 N           1.5776    0.4976    0.8576 N.pl3   1  UNL1       -0.3126
      7 C           2.7618   -0.2533    1.2767 C.3     1  UNL1        0.0349
      8 C           3.5299   -0.7554    0.0488 C.3     1  UNL1        0.0597
      9 O           3.9867    0.3520   -0.7383 O.3     1  UNL1       -0.3935
     10 N           0.1997   -1.4318    1.0420 N.ar    1  UNL1       -0.2144
     11 C          -1.0635   -1.7308    0.6131 C.ar    1  UNL1        0.0909
     12 C          -1.7877   -2.9246    0.7527 C.ar    1  UNL1       -0.0342
     13 C          -3.0779   -2.9999    0.2175 C.ar    1  UNL1       -0.0596
     14 C          -3.6361   -1.9068   -0.4447 C.ar    1  UNL1       -0.0597
     15 C          -2.9286   -0.7072   -0.5916 C.ar    1  UNL1       -0.0360
     16 C          -1.6373   -0.6492   -0.0464 C.ar    1  UNL1        0.0703
     17 H          -0.9102    3.7566    0.1123 H       1  UNL1        0.0249
     18 H          -1.1093    2.5961    1.4348 H       1  UNL1        0.0249
     19 H           0.4920    2.8984    0.7422 H       1  UNL1        0.0249
     20 H          -1.8897    1.7799   -0.7897 H       1  UNL1        0.0523
     21 H           1.0420    1.8731   -1.6489 H       1  UNL1        0.0249
     22 H          -0.2757    1.1151   -2.5478 H       1  UNL1        0.0249
     23 H          -0.2856    2.8626   -2.2633 H       1  UNL1        0.0249
     24 H           1.8268    1.2058    0.1737 H       1  UNL1        0.1489
     25 H           2.5136   -1.0828    1.9486 H       1  UNL1        0.0484
     26 H           3.4006    0.4373    1.8392 H       1  UNL1        0.0484
     27 H           4.4023   -1.3428    0.3513 H       1  UNL1        0.0573
     28 H           2.8969   -1.3801   -0.5892 H       1  UNL1        0.0573
     29 H           4.6530    0.8225   -0.2082 H       1  UNL1        0.2095
     30 H          -1.3437   -3.7689    1.2679 H       1  UNL1        0.0639
     31 H          -3.6472   -3.9204    0.3196 H       1  UNL1        0.0618
     32 H          -4.6407   -1.9867   -0.8550 H       1  UNL1        0.0618
     33 H          -3.3765    0.1330   -1.1101 H       1  UNL1        0.0639
@<TRIPOS>BOND
     1     1     2    1
     2     2     3    1
     3     2     4    1
     4     4     5   ar
     5     5     6    1
     6     6     7    1
     7     7     8    1
     8     8     9    1
     9     5    10   ar
    10    10    11   ar
    11    11    12   ar
    12    12    13   ar
    13    13    14   ar
    14    14    15   ar
    15    15    16   ar
    16    16     4   ar
    17    16    11   ar
    18     1    17    1
    19     1    18    1
    20     1    19    1
    21     2    20    1
    22     3    21    1
    23     3    22    1
    24     3    23    1
    25     6    24    1
    26     7    25    1
    27     7    26    1
    28     8    27    1
    29     8    28    1
    30     9    29    1
    31    12    30    1
    32    13    31    1
    33    14    32    1
    34    15    33    1
