@<TRIPOS>MOLECULE
*****
 32 33 0 0 0
SMALL
GASTEIGER

@<TRIPOS>ATOM
      1 C          -4.3590   -1.6740    0.8834 C.3     1  UNL1       -0.0280
      2 C          -4.3961   -0.6480   -0.2434 C.3     1  UNL1        0.0976
      3 C          -5.5771   -0.9079   -1.1707 C.3     1  UNL1       -0.0280
      4 O          -3.1993   -0.7620   -1.0389 O.3     1  UNL1       -0.4606
      5 C          -2.0996   -0.0901   -0.5776 C.2     1  UNL1        0.3309
      6 O          -2.0769    0.5781    0.4451 O.2     1  UNL1       -0.2487
      7 C          -0.9586   -0.3269   -1.5186 C.3     1  UNL1        0.1594
      8 N           0.2063    0.4244   -1.1249 N.ar    1  UNL1       -0.1519
      9 N           0.4244    1.6696   -1.5792 N.ar    1  UNL1       -0.0453
     10 N           1.6346    1.9795   -1.1386 N.ar    1  UNL1       -0.1078
     11 C           2.1150    0.8755   -0.4688 C.ar    1  UNL1        0.2046
     12 C           3.4333    0.8375    0.1513 C.ar    1  UNL1        0.0227
     13 C           4.2807    1.9539    0.0890 C.ar    1  UNL1       -0.0509
     14 C           5.5460    1.9212    0.6818 C.ar    1  UNL1       -0.0611
     15 C           5.9774    0.7730    1.3431 C.ar    1  UNL1       -0.0617
     16 C           5.1461   -0.3430    1.4136 C.ar    1  UNL1       -0.0611
     17 C           3.8809   -0.3112    0.8212 C.ar    1  UNL1       -0.0509
     18 N           1.2421   -0.1495   -0.4807 N.ar    1  UNL1       -0.1299
     19 H          -3.5124   -1.4892    1.5525 H       1  UNL1        0.0265
     20 H          -4.2288   -2.6868    0.4863 H       1  UNL1        0.0265
     21 H          -5.2783   -1.6445    1.4762 H       1  UNL1        0.0265
     22 H          -4.4909    0.3660    0.1635 H       1  UNL1        0.0728
     23 H          -6.5280   -0.8377   -0.6337 H       1  UNL1        0.0265
     24 H          -5.5846   -0.1806   -1.9898 H       1  UNL1        0.0265
     25 H          -5.5054   -1.8993   -1.6317 H       1  UNL1        0.0265
     26 H          -1.2360   -0.0107   -2.5291 H       1  UNL1        0.0644
     27 H          -0.6965   -1.3894   -1.5198 H       1  UNL1        0.0644
     28 H           3.9626    2.8610   -0.4216 H       1  UNL1        0.0625
     29 H           6.1927    2.7933    0.6271 H       1  UNL1        0.0618
     30 H           6.9613    0.7484    1.8048 H       1  UNL1        0.0618
     31 H           5.4801   -1.2392    1.9304 H       1  UNL1        0.0618
     32 H           3.2442   -1.1914    0.8877 H       1  UNL1        0.0625
@<TRIPOS>BOND
     1     1     2    1
     2     2     3    1
     3     2     4    1
     4     4     5    1
     5     5     6    2
     6     5     7    1
     7     7     8    1
     8     8     9   ar
     9     9    10   ar
    10    10    11   ar
    11    11    12    1
    12    12    13   ar
    13    13    14   ar
    14    14    15   ar
    15    15    16   ar
    16    16    17   ar
    17    11    18   ar
    18    18     8   ar
    19    17    12   ar
    20     1    19    1
    21     1    20    1
    22     1    21    1
    23     2    22    1
    24     3    23    1
    25     3    24    1
    26     3    25    1
    27     7    26    1
    28     7    27    1
    29    13    28    1
    30    14    29    1
    31    15    30    1
    32    16    31    1
    33    17    32    1
