@<TRIPOS>MOLECULE
*****
 44 50 0 0 0
SMALL
GASTEIGER

@<TRIPOS>ATOM
      1 SI         -6.2321   -1.3159   -0.4446 Si      1  UNL1        0.0000
      2 C          -6.6258    0.3914    0.2114 C.2     1  UNL1        0.0000
      3 C          -5.4972    1.0799    0.4681 C.ar    1  UNL1        0.0000
      4 C          -5.4709    2.4427    0.9899 C.ar    1  UNL1        0.0000
      5 C          -4.2947    3.0599    1.2191 C.ar    1  UNL1        0.0000
      6 C          -3.0932    2.3420    0.9368 C.ar    1  UNL1        0.0000
      7 O          -1.8226    2.8188    1.1117 O.2     1  UNL1        0.0000
      8 C          -0.9573    1.8395    0.7310 C.ar    1  UNL1        0.0000
      9 C           0.4308    1.9523    0.7666 C.ar    1  UNL1        0.0000
     10 C           1.1741    0.8413    0.3367 C.ar    1  UNL1        0.0000
     11 C           2.6524    0.9313    0.3752 C.ar    1  UNL1        0.0000
     12 C           3.4796   -0.0703   -0.0084 C.ar    1  UNL1        0.0000
     13 C           4.9422    0.1702    0.1260 C.ar    1  UNL1        0.0000
     14 N           5.7061   -0.8411    0.5510 N.ar    1  UNL1        0.0000
     15 C           6.9978   -0.5498    0.6717 C.ar    1  UNL1        0.0000
     16 N           7.5656    0.6240    0.4106 N.ar    1  UNL1        0.0000
     17 C           6.7087    1.5543    0.0003 C.ar    1  UNL1        0.0000
     18 N           5.3974    1.3981   -0.1561 N.ar    1  UNL1        0.0000
     19 C           2.8640   -1.3087   -0.5076 C.ar    1  UNL1        0.0000
     20 C           3.5277   -2.3857   -0.9803 C.2     1  UNL1        0.0000
     21 SI          2.3749   -3.7459   -1.5141 Si      1  UNL1        0.0000
     22 C           0.9500   -2.6387   -1.0376 C.2     1  UNL1        0.0000
     23 C           1.3840   -1.4543   -0.5559 C.ar    1  UNL1        0.0000
     24 C           0.5240   -0.3333   -0.1114 C.ar    1  UNL1        0.0000
     25 C          -0.8843   -0.3997   -0.1277 C.ar    1  UNL1        0.0000
     26 C          -1.6416    0.7083    0.3020 C.ar    1  UNL1        0.0000
     27 C          -3.0128    1.0398    0.4375 C.ar    1  UNL1        0.0000
     28 C          -4.2336    0.3396    0.1769 C.ar    1  UNL1        0.0000
     29 C          -4.4108   -0.9070   -0.2992 C.2     1  UNL1        0.0000
     30 H          -6.6585   -1.4930   -1.8533 H       1  UNL1        0.0000
     31 H          -6.6442   -2.3902    0.4900 H       1  UNL1        0.0000
     32 H          -7.6430    0.7235    0.3449 H       1  UNL1        0.0000
     33 H          -6.4101    2.9475    1.1889 H       1  UNL1        0.0000
     34 H          -4.2358    4.0700    1.6056 H       1  UNL1        0.0000
     35 H           0.8966    2.8663    1.1154 H       1  UNL1        0.0000
     36 H           3.0592    1.8660    0.7553 H       1  UNL1        0.0000
     37 H           7.6499   -1.3456    1.0156 H       1  UNL1        0.0000
     38 H           7.1169    2.5333   -0.2265 H       1  UNL1        0.0000
     39 H           4.5945   -2.5175   -1.0624 H       1  UNL1        0.0000
     40 H           2.4249   -4.0003   -2.9741 H       1  UNL1        0.0000
     41 H           2.4650   -4.9500   -0.6536 H       1  UNL1        0.0000
     42 H          -0.0636   -2.9753   -1.1749 H       1  UNL1        0.0000
     43 H          -1.3937   -1.2922   -0.4672 H       1  UNL1        0.0000
     44 H          -3.6606   -1.6255   -0.5788 H       1  UNL1        0.0000
@<TRIPOS>BOND
     1     1     2    1
     2     2     3    2
     3     3     4   ar
     4     4     5   ar
     5     5     6   ar
     6     6     7   ar
     7     7     8   ar
     8     8     9   ar
     9     9    10   ar
    10    10    11   ar
    11    11    12   ar
    12    12    13    1
    13    13    14   ar
    14    14    15   ar
    15    15    16   ar
    16    16    17   ar
    17    17    18   ar
    18    12    19   ar
    19    19    20    2
    20    20    21    1
    21    21    22    1
    22    22    23    2
    23    23    24   ar
    24    24    25   ar
    25    25    26   ar
    26    26    27   ar
    27    27    28   ar
    28    28    29    2
    29    29     1    1
    30    28     3   ar
    31    27     6   ar
    32    26     8   ar
    33    24    10   ar
    34    18    13   ar
    35    23    19   ar
    36     1    30    1
    37     1    31    1
    38     2    32    1
    39     4    33    1
    40     5    34    1
    41     9    35    1
    42    11    36    1
    43    15    37    1
    44    17    38    1
    45    20    39    1
    46    21    40    1
    47    21    41    1
    48    22    42    1
    49    25    43    1
    50    29    44    1
