@<TRIPOS>MOLECULE
*****
 42 44 0 0 0
SMALL
GASTEIGER

@<TRIPOS>ATOM
      1 C          -3.4264   -0.0100    2.0963 C.3     1  UNL1       -0.0280
      2 C          -4.0282    0.7404    0.9114 C.3     1  UNL1        0.0975
      3 C          -5.5283    0.9536    1.1094 C.3     1  UNL1       -0.0280
      4 O          -3.8040   -0.0721   -0.2569 O.3     1  UNL1       -0.4613
      5 C          -3.7782    0.5781   -1.4534 C.2     1  UNL1        0.3177
      6 O          -3.9985    1.7766   -1.6014 O.2     1  UNL1       -0.2499
      7 C          -3.5419   -0.3738   -2.6083 C.3     1  UNL1        0.0971
      8 S          -2.2392   -1.6137   -2.2839 S.3     1  UNL1       -0.0938
      9 C          -0.8291   -0.5653   -2.0988 C.ar    1  UNL1        0.1114
     10 N          -0.9285    0.7651   -2.3052 N.ar    1  UNL1       -0.2284
     11 C           0.1794    1.5153   -2.1420 C.ar    1  UNL1        0.1196
     12 N           1.4143    1.1047   -1.8059 N.ar    1  UNL1       -0.2162
     13 C           1.4559   -0.2255   -1.6124 C.ar    1  UNL1        0.1628
     14 C           0.3985   -1.1111   -1.7391 C.ar    1  UNL1        0.0704
     15 C           0.9564   -2.3691   -1.4380 C.ar    1  UNL1        0.0613
     16 N           2.2640   -2.3063   -1.1563 N.ar    1  UNL1       -0.1768
     17 N           2.5399   -0.9799   -1.2443 N.ar    1  UNL1       -0.2419
     18 C           3.8914   -0.4921   -1.0252 C.3     1  UNL1        0.0688
     19 C           4.1533   -0.2138    0.4351 C.ar    1  UNL1       -0.0261
     20 C           4.6355   -1.2291    1.2761 C.ar    1  UNL1       -0.0568
     21 C           4.8756   -0.9748    2.6280 C.ar    1  UNL1       -0.0614
     22 C           4.6304    0.2930    3.1543 C.ar    1  UNL1       -0.0617
     23 C           4.1399    1.3070    2.3312 C.ar    1  UNL1       -0.0614
     24 C           3.8997    1.0557    0.9780 C.ar    1  UNL1       -0.0568
     25 H          -3.5822    0.5261    3.0371 H       1  UNL1        0.0265
     26 H          -2.3499   -0.1452    1.9473 H       1  UNL1        0.0265
     27 H          -3.8577   -1.0135    2.1860 H       1  UNL1        0.0265
     28 H          -3.5117    1.7025    0.8104 H       1  UNL1        0.0728
     29 H          -5.7321    1.5361    2.0137 H       1  UNL1        0.0265
     30 H          -6.0560   -0.0051    1.1841 H       1  UNL1        0.0265
     31 H          -5.9595    1.4846    0.2524 H       1  UNL1        0.0265
     32 H          -3.2789    0.2007   -3.5032 H       1  UNL1        0.0494
     33 H          -4.4801   -0.9004   -2.8124 H       1  UNL1        0.0494
     34 H           0.0554    2.5851   -2.3019 H       1  UNL1        0.1048
     35 H           0.4632   -3.3324   -1.4193 H       1  UNL1        0.0855
     36 H           4.5876   -1.2464   -1.4131 H       1  UNL1        0.0559
     37 H           4.0360    0.4114   -1.6298 H       1  UNL1        0.0559
     38 H           4.8183   -2.2285    0.8824 H       1  UNL1        0.0621
     39 H           5.2466   -1.7675    3.2737 H       1  UNL1        0.0618
     40 H           4.8169    0.4890    4.2087 H       1  UNL1        0.0618
     41 H           3.9432    2.2940    2.7454 H       1  UNL1        0.0618
     42 H           3.5092    1.8567    0.3502 H       1  UNL1        0.0621
@<TRIPOS>BOND
     1     1     2    1
     2     2     3    1
     3     2     4    1
     4     4     5    1
     5     5     6    2
     6     5     7    1
     7     7     8    1
     8     8     9    1
     9     9    10   ar
    10    10    11   ar
    11    11    12   ar
    12    12    13   ar
    13    13    14   ar
    14    14    15   ar
    15    15    16   ar
    16    16    17   ar
    17    17    18    1
    18    18    19    1
    19    19    20   ar
    20    20    21   ar
    21    21    22   ar
    22    22    23   ar
    23    23    24   ar
    24    14     9   ar
    25    24    19   ar
    26    17    13   ar
    27     1    25    1
    28     1    26    1
    29     1    27    1
    30     2    28    1
    31     3    29    1
    32     3    30    1
    33     3    31    1
    34     7    32    1
    35     7    33    1
    36    11    34    1
    37    15    35    1
    38    18    36    1
    39    18    37    1
    40    20    38    1
    41    21    39    1
    42    22    40    1
    43    23    41    1
    44    24    42    1
