@<TRIPOS>MOLECULE
*****
 39 40 0 0 0
SMALL
GASTEIGER

@<TRIPOS>ATOM
      1 C          -5.4293    1.3322   -0.2456 C.3     1  UNL1       -0.0281
      2 C          -4.9755    0.4377    0.9047 C.3     1  UNL1        0.0946
      3 C          -6.1567    0.1354    1.8250 C.3     1  UNL1       -0.0281
      4 O          -4.5184   -0.8219    0.3995 O.3     1  UNL1       -0.4893
      5 C          -3.2258   -0.9489   -0.0228 C.ar    1  UNL1        0.1216
      6 C          -2.8943   -2.2278   -0.4820 C.ar    1  UNL1       -0.0199
      7 C          -1.6143   -2.5100   -0.9619 C.ar    1  UNL1       -0.0576
      8 C          -0.6435   -1.5110   -0.9759 C.ar    1  UNL1       -0.0494
      9 C          -0.9599   -0.2326   -0.4990 C.ar    1  UNL1        0.0405
     10 C           0.0495    0.8618   -0.4946 C.2     1  UNL1        0.2496
     11 O          -0.3242    2.0231   -0.6031 O.2     1  UNL1       -0.2698
     12 N           1.3464    0.4690   -0.1735 N.am    1  UNL1       -0.2636
     13 C           2.5573    0.9860   -0.6624 C.2     1  UNL1        0.1411
     14 S           2.6806    2.1333   -1.8686 S.2     1  UNL1       -0.0182
     15 N           3.6096    0.3951    0.0413 N.am    1  UNL1       -0.2954
     16 C           4.9890    0.3163   -0.2620 C.ar    1  UNL1        0.0509
     17 C           5.8650    0.0364    0.7911 C.ar    1  UNL1       -0.0376
     18 C           7.2324   -0.0925    0.5507 C.ar    1  UNL1       -0.0418
     19 C           7.6860    0.0436   -0.7487 C.ar    1  UNL1        0.0277
     20 N           6.8744    0.2855   -1.7970 N.ar    1  UNL1       -0.2614
     21 C           5.5483    0.4168   -1.5322 C.ar    1  UNL1        0.0487
     22 C          -2.2552    0.0506   -0.0389 C.ar    1  UNL1       -0.0078
     23 H          -4.5999    1.5628   -0.9211 H       1  UNL1        0.0265
     24 H          -6.1938    0.8324   -0.8508 H       1  UNL1        0.0265
     25 H          -5.8395    2.2763    0.1264 H       1  UNL1        0.0265
     26 H          -4.2102    0.9310    1.5141 H       1  UNL1        0.0727
     27 H          -6.9522   -0.3913    1.2860 H       1  UNL1        0.0265
     28 H          -5.8425   -0.5225    2.6427 H       1  UNL1        0.0265
     29 H          -6.5709    1.0522    2.2556 H       1  UNL1        0.0265
     30 H          -3.6512   -3.0099   -0.4783 H       1  UNL1        0.0654
     31 H          -1.3853   -3.5047   -1.3369 H       1  UNL1        0.0619
     32 H           0.3350   -1.7353   -1.3917 H       1  UNL1        0.0625
     33 H           1.4391   -0.4727    0.1769 H       1  UNL1        0.1568
     34 H           3.3790    0.1804    1.0044 H       1  UNL1        0.1539
     35 H           5.5033   -0.0698    1.8099 H       1  UNL1        0.0637
     36 H           7.9268   -0.2934    1.3589 H       1  UNL1        0.0633
     37 H           8.7415   -0.0455   -0.9892 H       1  UNL1        0.0829
     38 H           4.9510    0.5703   -2.4235 H       1  UNL1        0.0848
     39 H          -2.4716    1.0616    0.2922 H       1  UNL1        0.0662
@<TRIPOS>BOND
     1     1     2    1
     2     2     3    1
     3     2     4    1
     4     4     5    1
     5     5     6   ar
     6     6     7   ar
     7     7     8   ar
     8     8     9   ar
     9     9    10    1
    10    10    11    2
    11    10    12   am
    12    12    13    1
    13    13    14    2
    14    13    15    1
    15    15    16    1
    16    16    17   ar
    17    17    18   ar
    18    18    19   ar
    19    19    20   ar
    20    20    21   ar
    21     9    22   ar
    22    22     5   ar
    23    21    16   ar
    24     1    23    1
    25     1    24    1
    26     1    25    1
    27     2    26    1
    28     3    27    1
    29     3    28    1
    30     3    29    1
    31     6    30    1
    32     7    31    1
    33     8    32    1
    34    12    33    1
    35    15    34    1
    36    17    35    1
    37    18    36    1
    38    19    37    1
    39    21    38    1
    40    22    39    1
