@<TRIPOS>MOLECULE
*****
 36 40 0 0 0
SMALL
GASTEIGER

@<TRIPOS>ATOM
      1 C           6.2542    0.1520   -0.8704 C.3     1  UNL1       -0.0397
      2 C           4.7739    0.0444   -0.6556 C.ar    1  UNL1       -0.0504
      3 C           3.9912   -0.7586   -1.4923 C.ar    1  UNL1       -0.0582
      4 C           2.6054   -0.8333   -1.3134 C.ar    1  UNL1       -0.0523
      5 C           4.1461    0.7967    0.3423 C.ar    1  UNL1       -0.0582
      6 C           2.7612    0.7217    0.5193 C.ar    1  UNL1       -0.0523
      7 C           1.9780   -0.1039   -0.2969 C.ar    1  UNL1        0.0025
      8 C           0.5409   -0.1560   -0.0838 C.ar    1  UNL1        0.0971
      9 C          -0.2959   -1.2506   -0.2930 C.ar    1  UNL1        0.0745
     10 N          -1.4952   -0.7456    0.0653 N.ar    1  UNL1       -0.2915
     11 C          -1.4204    0.5351    0.4734 C.ar    1  UNL1        0.1470
     12 C          -2.7758    0.9132    0.8196 C.ar    1  UNL1        0.0269
     13 C          -3.2803    2.1040    1.2908 C.ar    1  UNL1       -0.0505
     14 C          -4.6567    2.1592    1.5344 C.ar    1  UNL1       -0.0611
     15 C          -5.4919    1.0411    1.3066 C.ar    1  UNL1       -0.0611
     16 C          -4.9806   -0.1715    0.8274 C.ar    1  UNL1       -0.0519
     17 C          -3.6257   -0.2326    0.5851 C.ar    1  UNL1        0.0095
     18 C          -2.7480   -1.3141    0.0906 C.ar    1  UNL1        0.0564
     19 C          -2.8277   -2.5947   -0.3032 C.ar    1  UNL1       -0.0371
     20 C          -1.5613   -3.2502   -0.7074 C.ar    1  UNL1       -0.0578
     21 C          -0.3566   -2.6160   -0.7005 C.ar    1  UNL1       -0.0356
     22 N          -0.1834    0.9599    0.4176 N.ar    1  UNL1       -0.2266
     23 H           6.7721    0.3536    0.0731 H       1  UNL1        0.0278
     24 H           6.6598   -0.7837   -1.2695 H       1  UNL1        0.0278
     25 H           6.4725    0.9611   -1.5742 H       1  UNL1        0.0278
     26 H           4.4536   -1.3272   -2.2960 H       1  UNL1        0.0620
     27 H           2.0256   -1.4482   -1.9955 H       1  UNL1        0.0624
     28 H           4.7271    1.4502    0.9890 H       1  UNL1        0.0620
     29 H           2.2910    1.3159    1.3009 H       1  UNL1        0.0624
     30 H          -2.6373    2.9600    1.4640 H       1  UNL1        0.0625
     31 H          -5.0957    3.0829    1.9074 H       1  UNL1        0.0618
     32 H          -6.5580    1.1283    1.5099 H       1  UNL1        0.0618
     33 H          -5.6296   -1.0226    0.6568 H       1  UNL1        0.0624
     34 H          -3.7541   -3.1546   -0.3255 H       1  UNL1        0.0638
     35 H          -1.6278   -4.2923   -1.0089 H       1  UNL1        0.0619
     36 H           0.5496   -3.1388   -0.9873 H       1  UNL1        0.0639
@<TRIPOS>BOND
     1     1     2    1
     2     2     3   ar
     3     3     4   ar
     4     2     5   ar
     5     5     6   ar
     6     6     7   ar
     7     7     8    1
     8     8     9   ar
     9     9    10   ar
    10    10    11   ar
    11    11    12   ar
    12    12    13   ar
    13    13    14   ar
    14    14    15   ar
    15    15    16   ar
    16    12    17   ar
    17    17    18   ar
    18    18    19   ar
    19    19    20   ar
    20    20    21   ar
    21    11    22   ar
    22     7     4   ar
    23    22     8   ar
    24    21     9   ar
    25    18    10   ar
    26    17    16   ar
    27     1    23    1
    28     1    24    1
    29     1    25    1
    30     3    26    1
    31     4    27    1
    32     5    28    1
    33     6    29    1
    34    13    30    1
    35    14    31    1
    36    15    32    1
    37    16    33    1
    38    19    34    1
    39    20    35    1
    40    21    36    1
