@<TRIPOS>MOLECULE
*****
 38 41 0 0 0
SMALL
GASTEIGER

@<TRIPOS>ATOM
      1 C           3.3293   -2.4972    1.7736 C.3     1  UNL1       -0.0397
      2 C           2.5507   -1.3479    1.2058 C.ar    1  UNL1       -0.0504
      3 C           1.9902   -0.3842    2.0519 C.ar    1  UNL1       -0.0582
      4 C           1.2274    0.6616    1.5263 C.ar    1  UNL1       -0.0524
      5 C           2.3241   -1.2590   -0.1725 C.ar    1  UNL1       -0.0582
      6 C           1.5634   -0.2126   -0.6998 C.ar    1  UNL1       -0.0524
      7 C           0.9976    0.7472    0.1471 C.ar    1  UNL1       -0.0011
      8 C           0.2073    1.8550   -0.4103 C.ar    1  UNL1        0.0557
      9 C           0.8113    3.0629   -0.4763 C.ar    1  UNL1       -0.0371
     10 C           0.1114    4.1976   -1.0494 C.ar    1  UNL1       -0.0578
     11 C          -1.1295    4.0749   -1.5501 C.ar    1  UNL1       -0.0362
     12 C          -1.7739    2.8107   -1.5070 C.ar    1  UNL1        0.0666
     13 C          -2.9796    2.3267   -1.9448 C.ar    1  UNL1        0.0538
     14 N          -3.1091    1.0042   -1.6383 N.ar    1  UNL1       -0.2349
     15 C          -2.0081    0.6602   -0.9865 C.ar    1  UNL1        0.1456
     16 C          -1.8019   -0.6769   -0.4342 C.ar    1  UNL1        0.0178
     17 C          -1.8243   -0.8958    0.9487 C.ar    1  UNL1       -0.0511
     18 C          -1.6390   -2.1813    1.4621 C.ar    1  UNL1       -0.0611
     19 C          -1.4490   -3.2578    0.5967 C.ar    1  UNL1       -0.0617
     20 C          -1.4552   -3.0536   -0.7824 C.ar    1  UNL1       -0.0611
     21 C          -1.6392   -1.7686   -1.2964 C.ar    1  UNL1       -0.0511
     22 N          -1.1094    1.7303   -0.9174 N.ar    1  UNL1       -0.2922
     23 H           2.6564   -3.3314    1.9947 H       1  UNL1        0.0278
     24 H           4.0950   -2.8367    1.0682 H       1  UNL1        0.0278
     25 H           3.8440   -2.2036    2.6945 H       1  UNL1        0.0278
     26 H           2.1406   -0.4439    3.1273 H       1  UNL1        0.0620
     27 H           0.8024    1.4003    2.2018 H       1  UNL1        0.0624
     28 H           2.7346   -2.0077   -0.8462 H       1  UNL1        0.0620
     29 H           1.4050   -0.1615   -1.7746 H       1  UNL1        0.0624
     30 H           1.8267    3.2248   -0.1249 H       1  UNL1        0.0638
     31 H           0.6270    5.1530   -1.0712 H       1  UNL1        0.0619
     32 H          -1.6429    4.9266   -1.9854 H       1  UNL1        0.0639
     33 H          -3.7630    2.8614   -2.4656 H       1  UNL1        0.0851
     34 H          -1.9855   -0.0664    1.6324 H       1  UNL1        0.0625
     35 H          -1.6459   -2.3418    2.5366 H       1  UNL1        0.0618
     36 H          -1.3063   -4.2579    0.9972 H       1  UNL1        0.0618
     37 H          -1.3235   -3.8941   -1.4582 H       1  UNL1        0.0618
     38 H          -1.6591   -1.6176   -2.3733 H       1  UNL1        0.0625
@<TRIPOS>BOND
     1     1     2    1
     2     2     3   ar
     3     3     4   ar
     4     2     5   ar
     5     5     6   ar
     6     6     7   ar
     7     7     8    1
     8     8     9   ar
     9     9    10   ar
    10    10    11   ar
    11    11    12   ar
    12    12    13   ar
    13    13    14   ar
    14    14    15   ar
    15    15    16    1
    16    16    17   ar
    17    17    18   ar
    18    18    19   ar
    19    19    20   ar
    20    20    21   ar
    21    15    22   ar
    22     7     4   ar
    23    22     8   ar
    24    22    12   ar
    25    21    16   ar
    26     1    23    1
    27     1    24    1
    28     1    25    1
    29     3    26    1
    30     4    27    1
    31     5    28    1
    32     6    29    1
    33     9    30    1
    34    10    31    1
    35    11    32    1
    36    13    33    1
    37    17    34    1
    38    18    35    1
    39    19    36    1
    40    20    37    1
    41    21    38    1
