@<TRIPOS>MOLECULE
*****
 26 28 0 0 0
SMALL
GASTEIGER

@<TRIPOS>ATOM
      1 C           4.4008    0.3913    0.2034 C.3     1  UNL1       -0.0397
      2 C           2.9195    0.1744    0.1089 C.ar    1  UNL1       -0.0504
      3 C           2.1721    0.8113   -0.8871 C.ar    1  UNL1       -0.0582
      4 C           0.7959    0.5898   -0.9933 C.ar    1  UNL1       -0.0523
      5 C           2.2735   -0.7049    0.9840 C.ar    1  UNL1       -0.0582
      6 C           0.8972   -0.9268    0.8786 C.ar    1  UNL1       -0.0523
      7 C           0.1435   -0.2822   -0.1127 C.ar    1  UNL1        0.0006
      8 C          -1.3063   -0.5249   -0.2365 C.ar    1  UNL1        0.0777
      9 C          -1.7469   -1.7827   -0.4297 C.ar    1  UNL1       -0.0173
     10 C          -3.2185   -1.9457   -0.5595 C.ar    1  UNL1        0.0335
     11 N          -4.1066   -1.0036   -0.5092 N.ar    1  UNL1       -0.2190
     12 C          -3.6234    0.2596   -0.3180 C.ar    1  UNL1        0.2533
     13 N          -4.2861    1.3922   -0.2293 N.ar    1  UNL1       -0.1974
     14 C          -3.3097    2.3174   -0.0426 C.ar    1  UNL1        0.1406
     15 N          -2.0625    1.8535   -0.0102 N.ar    1  UNL1       -0.1518
     16 N          -2.2474    0.5174   -0.1834 N.ar    1  UNL1       -0.1963
     17 H           4.9261   -0.3391   -0.4196 H       1  UNL1        0.0278
     18 H           4.7456    0.2880    1.2376 H       1  UNL1        0.0278
     19 H           4.6700    1.3994   -0.1290 H       1  UNL1        0.0278
     20 H           2.6543    1.4922   -1.5854 H       1  UNL1        0.0620
     21 H           0.2402    1.1110   -1.7705 H       1  UNL1        0.0624
     22 H           2.8371   -1.2182    1.7602 H       1  UNL1        0.0620
     23 H           0.4217   -1.6011    1.5874 H       1  UNL1        0.0624
     24 H          -1.1169   -2.6587   -0.5061 H       1  UNL1        0.0654
     25 H          -3.5584   -2.9838   -0.7137 H       1  UNL1        0.0831
     26 H          -3.5150    3.3742    0.0735 H       1  UNL1        0.1066
@<TRIPOS>BOND
     1     1     2    1
     2     2     3   ar
     3     3     4   ar
     4     2     5   ar
     5     5     6   ar
     6     6     7   ar
     7     7     8    1
     8     8     9   ar
     9     9    10   ar
    10    10    11   ar
    11    11    12   ar
    12    12    13   ar
    13    13    14   ar
    14    14    15   ar
    15    15    16   ar
    16     7     4   ar
    17    16     8   ar
    18    16    12   ar
    19     1    17    1
    20     1    18    1
    21     1    19    1
    22     3    20    1
    23     4    21    1
    24     5    22    1
    25     6    23    1
    26     9    24    1
    27    10    25    1
    28    14    26    1
