@<TRIPOS>MOLECULE
*****
 34 37 0 0 0
SMALL
GASTEIGER

@<TRIPOS>ATOM
      1 C           5.1127   -0.6882   -0.2126 C.3     1  UNL1       -0.0397
      2 C           3.7531   -0.0809   -0.0301 C.ar    1  UNL1       -0.0504
      3 C           2.9347    0.1711   -1.1377 C.ar    1  UNL1       -0.0582
      4 C           1.6579    0.7124   -0.9657 C.ar    1  UNL1       -0.0508
      5 C           3.2701    0.2019    1.2532 C.ar    1  UNL1       -0.0582
      6 C           1.9936    0.7433    1.4258 C.ar    1  UNL1       -0.0508
      7 C           1.1717    0.9846    0.3196 C.ar    1  UNL1        0.0178
      8 C          -0.1565    1.5620    0.5101 C.ar    1  UNL1        0.1456
      9 N          -0.3312    2.7978    0.9552 N.ar    1  UNL1       -0.2349
     10 C          -1.6646    3.0607    0.8452 C.ar    1  UNL1        0.0538
     11 C          -2.3392    1.9674    0.3619 C.ar    1  UNL1        0.0667
     12 N          -1.3856    0.9619    0.2272 N.ar    1  UNL1       -0.2922
     13 C          -1.7392   -0.3723   -0.1349 C.ar    1  UNL1        0.0557
     14 C          -3.0943   -0.5973   -0.4561 C.ar    1  UNL1       -0.0011
     15 C          -3.5158   -1.8774   -0.8338 C.ar    1  UNL1       -0.0526
     16 C          -2.6044   -2.9316   -0.8747 C.ar    1  UNL1       -0.0611
     17 C          -1.2731   -2.7141   -0.5264 C.ar    1  UNL1       -0.0598
     18 C          -0.8379   -1.4400   -0.1496 C.ar    1  UNL1       -0.0372
     19 C          -4.0677    0.4989   -0.3763 C.ar    1  UNL1       -0.0506
     20 C          -3.6913    1.7179    0.0322 C.ar    1  UNL1       -0.0357
     21 H           5.7965   -0.3603    0.5773 H       1  UNL1        0.0278
     22 H           5.0406   -1.7799   -0.1879 H       1  UNL1        0.0278
     23 H           5.5516   -0.3837   -1.1686 H       1  UNL1        0.0278
     24 H           3.2896   -0.0430   -2.1434 H       1  UNL1        0.0620
     25 H           1.0455    0.9217   -1.8399 H       1  UNL1        0.0625
     26 H           3.8885    0.0135    2.1281 H       1  UNL1        0.0620
     27 H           1.6407    0.9806    2.4273 H       1  UNL1        0.0625
     28 H          -2.0687    4.0295    1.1083 H       1  UNL1        0.0851
     29 H          -4.5553   -2.0668   -1.0905 H       1  UNL1        0.0624
     30 H          -2.9351   -3.9258   -1.1646 H       1  UNL1        0.0618
     31 H          -0.5681   -3.5425   -0.5391 H       1  UNL1        0.0618
     32 H           0.1990   -1.3415    0.1460 H       1  UNL1        0.0638
     33 H          -5.1015    0.2973   -0.6362 H       1  UNL1        0.0625
     34 H          -4.4166    2.5229    0.1062 H       1  UNL1        0.0639
@<TRIPOS>BOND
     1     1     2    1
     2     2     3   ar
     3     3     4   ar
     4     2     5   ar
     5     5     6   ar
     6     6     7   ar
     7     7     8    1
     8     8     9   ar
     9     9    10   ar
    10    10    11   ar
    11    11    12   ar
    12    12    13   ar
    13    13    14   ar
    14    14    15   ar
    15    15    16   ar
    16    16    17   ar
    17    17    18   ar
    18    14    19   ar
    19    19    20   ar
    20     7     4   ar
    21    12     8   ar
    22    20    11   ar
    23    18    13   ar
    24     1    21    1
    25     1    22    1
    26     1    23    1
    27     3    24    1
    28     4    25    1
    29     5    26    1
    30     6    27    1
    31    10    28    1
    32    15    29    1
    33    16    30    1
    34    17    31    1
    35    18    32    1
    36    19    33    1
    37    20    34    1
