@<TRIPOS>MOLECULE
*****
 39 42 0 0 0
SMALL
GASTEIGER

@<TRIPOS>ATOM
      1 C          -6.2895   -2.1192    0.8903 C.3     1  UNL1       -0.0397
      2 C          -5.0674   -1.3560    0.4738 C.ar    1  UNL1       -0.0504
      3 C          -3.7944   -1.7901    0.8591 C.ar    1  UNL1       -0.0582
      4 C          -2.6569   -1.0608    0.4975 C.ar    1  UNL1       -0.0507
      5 C          -5.1876   -0.1688   -0.2565 C.ar    1  UNL1       -0.0582
      6 C          -4.0497    0.5599   -0.6175 C.ar    1  UNL1       -0.0507
      7 C          -2.7712    0.1215   -0.2469 C.ar    1  UNL1        0.0210
      8 C          -1.5881    0.8892   -0.6288 C.ar    1  UNL1        0.1838
      9 N          -0.3358    0.5239   -0.3254 N.ar    1  UNL1       -0.1431
     10 N           0.4113    1.5156   -0.8693 N.ar    1  UNL1       -0.1957
     11 C           1.8062    1.6884   -0.8753 C.ar    1  UNL1        0.0778
     12 C           2.7204    0.7167   -0.2462 C.ar    1  UNL1        0.0006
     13 C           3.6207    1.1196    0.7504 C.ar    1  UNL1       -0.0523
     14 C           4.4939    0.1980    1.3359 C.ar    1  UNL1       -0.0582
     15 C           4.4895   -1.1406    0.9302 C.ar    1  UNL1       -0.0504
     16 C           5.3990   -2.1374    1.5854 C.3     1  UNL1       -0.0397
     17 C           3.5789   -1.5494   -0.0497 C.ar    1  UNL1       -0.0582
     18 C           2.7056   -0.6285   -0.6357 C.ar    1  UNL1       -0.0523
     19 C           2.3212    2.7662   -1.4969 C.ar    1  UNL1       -0.0173
     20 C           1.3375    3.6901   -2.1194 C.ar    1  UNL1        0.0335
     21 N           0.0489    3.5549   -2.1237 N.ar    1  UNL1       -0.2190
     22 C          -0.4345    2.4463   -1.4885 C.ar    1  UNL1        0.2539
     23 N          -1.6799    2.0579   -1.3416 N.ar    1  UNL1       -0.1892
     24 H          -6.0731   -3.1897    0.9704 H       1  UNL1        0.0278
     25 H          -7.0915   -2.0047    0.1535 H       1  UNL1        0.0278
     26 H          -6.6449   -1.7564    1.8596 H       1  UNL1        0.0278
     27 H          -3.6764   -2.6996    1.4439 H       1  UNL1        0.0620
     28 H          -1.6776   -1.4218    0.8060 H       1  UNL1        0.0625
     29 H          -6.1674    0.1998   -0.5517 H       1  UNL1        0.0620
     30 H          -4.1682    1.4781   -1.1903 H       1  UNL1        0.0625
     31 H           3.6428    2.1511    1.0947 H       1  UNL1        0.0624
     32 H           5.1745    0.5319    2.1163 H       1  UNL1        0.0620
     33 H           4.9069   -2.5752    2.4593 H       1  UNL1        0.0278
     34 H           5.6648   -2.9400    0.8893 H       1  UNL1        0.0278
     35 H           6.3327   -1.6629    1.9051 H       1  UNL1        0.0278
     36 H           3.5382   -2.5907   -0.3621 H       1  UNL1        0.0620
     37 H           2.0072   -0.9784   -1.3938 H       1  UNL1        0.0624
     38 H           3.3755    2.9926   -1.5812 H       1  UNL1        0.0654
     39 H           1.7783    4.5686   -2.6204 H       1  UNL1        0.0831
@<TRIPOS>BOND
     1     1     2    1
     2     2     3   ar
     3     3     4   ar
     4     2     5   ar
     5     5     6   ar
     6     6     7   ar
     7     7     8    1
     8     8     9   ar
     9     9    10   ar
    10    10    11   ar
    11    11    12    1
    12    12    13   ar
    13    13    14   ar
    14    14    15   ar
    15    15    16    1
    16    15    17   ar
    17    17    18   ar
    18    11    19   ar
    19    19    20   ar
    20    20    21   ar
    21    21    22   ar
    22    22    23   ar
    23     7     4   ar
    24    23     8   ar
    25    22    10   ar
    26    18    12   ar
    27     1    24    1
    28     1    25    1
    29     1    26    1
    30     3    27    1
    31     4    28    1
    32     5    29    1
    33     6    30    1
    34    13    31    1
    35    14    32    1
    36    16    33    1
    37    16    34    1
    38    16    35    1
    39    17    36    1
    40    18    37    1
    41    19    38    1
    42    20    39    1
