@<TRIPOS>MOLECULE
*****
 26 28 0 0 0
SMALL
GASTEIGER

@<TRIPOS>ATOM
      1 C           4.9661   -0.4434   -0.9775 C.3     1  UNL1       -0.0397
      2 C           3.4877   -0.3384   -0.7471 C.ar    1  UNL1       -0.0504
      3 C           2.6196   -0.0903   -1.8157 C.ar    1  UNL1       -0.0582
      4 C           1.2443    0.0389   -1.5965 C.ar    1  UNL1       -0.0507
      5 C           2.9630   -0.4301    0.5466 C.ar    1  UNL1       -0.0582
      6 C           1.5874   -0.3007    0.7649 C.ar    1  UNL1       -0.0507
      7 C           0.7117   -0.0666   -0.3044 C.ar    1  UNL1        0.0210
      8 C          -0.7268    0.0702   -0.0861 C.ar    1  UNL1        0.1838
      9 N          -1.3099   -0.0171    1.1191 N.ar    1  UNL1       -0.1437
     10 N          -2.6136    0.1691    0.8283 N.ar    1  UNL1       -0.2036
     11 C          -3.7039    0.1836    1.6900 C.ar    1  UNL1        0.0344
     12 C          -4.9363    0.3865    1.2049 C.ar    1  UNL1       -0.0252
     13 C          -5.0082    0.5836   -0.2711 C.ar    1  UNL1        0.0329
     14 N          -4.0096    0.5755   -1.1003 N.ar    1  UNL1       -0.2190
     15 C          -2.7770    0.3637   -0.5462 C.ar    1  UNL1        0.2533
     16 N          -1.5993    0.3027   -1.1229 N.ar    1  UNL1       -0.1892
     17 H           5.1784   -0.8599   -1.9678 H       1  UNL1        0.0278
     18 H           5.4275    0.5461   -0.9031 H       1  UNL1        0.0278
     19 H           5.4301   -1.1070   -0.2403 H       1  UNL1        0.0278
     20 H           3.0049    0.0037   -2.8285 H       1  UNL1        0.0620
     21 H           0.5882    0.2263   -2.4449 H       1  UNL1        0.0625
     22 H           3.6200   -0.6040    1.3958 H       1  UNL1        0.0620
     23 H           1.2040   -0.3815    1.7800 H       1  UNL1        0.0625
     24 H          -3.4868    0.0247    2.7375 H       1  UNL1        0.0832
     25 H          -5.8379    0.4136    1.7993 H       1  UNL1        0.0648
     26 H          -6.0239    0.7506   -0.6680 H       1  UNL1        0.0831
@<TRIPOS>BOND
     1     1     2    1
     2     2     3   ar
     3     3     4   ar
     4     2     5   ar
     5     5     6   ar
     6     6     7   ar
     7     7     8    1
     8     8     9   ar
     9     9    10   ar
    10    10    11   ar
    11    11    12   ar
    12    12    13   ar
    13    13    14   ar
    14    14    15   ar
    15    15    16   ar
    16     7     4   ar
    17    16     8   ar
    18    15    10   ar
    19     1    17    1
    20     1    18    1
    21     1    19    1
    22     3    20    1
    23     4    21    1
    24     5    22    1
    25     6    23    1
    26    11    24    1
    27    12    25    1
    28    13    26    1
