@<TRIPOS>MOLECULE
*****
 50 55 0 0 0
SMALL
GASTEIGER

@<TRIPOS>ATOM
      1 C         -10.1166   -0.4455   -0.3279 C.3     1  UNL1       -0.0397
      2 C          -8.6349   -0.5308   -0.1004 C.ar    1  UNL1       -0.0486
      3 C          -7.8049    0.5416   -0.4400 C.ar    1  UNL1       -0.0329
      4 C          -6.4471    0.3820   -0.2291 C.ar    1  UNL1        0.1016
      5 C          -8.0668   -1.7194    0.4104 C.ar    1  UNL1       -0.0582
      6 C          -6.6829   -1.8467    0.6125 C.ar    1  UNL1       -0.0519
      7 C          -5.8532   -0.7820    0.2928 C.ar    1  UNL1        0.0092
      8 C          -4.3971   -0.6819    0.4175 C.ar    1  UNL1        0.0092
      9 C          -3.4973   -1.6199    0.8981 C.ar    1  UNL1       -0.0515
     10 C          -2.1287   -1.2989    0.9337 C.ar    1  UNL1       -0.0528
     11 C          -1.6406   -0.0465    0.4892 C.ar    1  UNL1       -0.0094
     12 C          -0.2096    0.2800    0.5488 C.ar    1  UNL1        0.0200
     13 C           0.3890    1.4432    0.9880 C.ar    1  UNL1       -0.0463
     14 C           1.8106    1.4041    0.8757 C.ar    1  UNL1       -0.0458
     15 C           2.2800    0.2149    0.3451 C.ar    1  UNL1        0.0265
     16 S           0.9650   -0.8371   -0.0048 S.2     1  UNL1       -0.0877
     17 C           3.6547   -0.1695    0.0853 C.ar    1  UNL1        0.0265
     18 C           4.1269   -1.3690   -0.4168 C.ar    1  UNL1       -0.0458
     19 C           5.5477   -1.3972   -0.5460 C.ar    1  UNL1       -0.0458
     20 C           6.1482   -0.2189   -0.1443 C.ar    1  UNL1        0.0265
     21 S           4.9646    0.8994    0.3920 S.2     1  UNL1       -0.0872
     22 C           7.5683    0.0682   -0.1400 C.ar    1  UNL1        0.0262
     23 C           8.5967   -0.8591   -0.1321 C.ar    1  UNL1       -0.0462
     24 C           9.8898   -0.2571   -0.1406 C.ar    1  UNL1       -0.0512
     25 C           9.8217    1.1189   -0.1607 C.ar    1  UNL1       -0.0127
     26 S           8.2037    1.6659   -0.1688 S.2     1  UNL1       -0.0930
     27 C          10.9389    2.1051   -0.1766 C.3     1  UNL1       -0.0334
     28 C          -2.5477    0.9034    0.0070 C.ar    1  UNL1       -0.0276
     29 C          -3.8869    0.5547   -0.0144 C.ar    1  UNL1        0.1019
     30 S          -5.2046    1.5797   -0.5704 S.O2    1  UNL1        0.0262
     31 O          -5.0916    1.7346   -2.0042 O.2     1  UNL1       -0.1643
     32 O          -5.3520    2.6798    0.3575 O.2     1  UNL1       -0.1643
     33 H         -10.3742   -0.8963   -1.2923 H       1  UNL1        0.0278
     34 H         -10.6596   -0.9673    0.4682 H       1  UNL1        0.0278
     35 H         -10.4561    0.5968   -0.3232 H       1  UNL1        0.0278
     36 H          -8.1990    1.4656   -0.8519 H       1  UNL1        0.0639
     37 H          -8.7124   -2.5623    0.6566 H       1  UNL1        0.0620
     38 H          -6.2849   -2.7760    1.0107 H       1  UNL1        0.0624
     39 H          -3.8264   -2.5924    1.2522 H       1  UNL1        0.0624
     40 H          -1.4369   -2.0416    1.3296 H       1  UNL1        0.0624
     41 H          -0.1619    2.2898    1.3813 H       1  UNL1        0.0629
     42 H           2.4503    2.2259    1.1752 H       1  UNL1        0.0629
     43 H           3.4910   -2.2036   -0.6881 H       1  UNL1        0.0629
     44 H           6.0942   -2.2500   -0.9285 H       1  UNL1        0.0629
     45 H           8.4376   -1.9306   -0.1119 H       1  UNL1        0.0629
     46 H          10.8206   -0.8114   -0.1322 H       1  UNL1        0.0626
     47 H          10.9183    2.7002   -1.0970 H       1  UNL1        0.0283
     48 H          11.9079    1.5964   -0.1287 H       1  UNL1        0.0283
     49 H          10.8747    2.7828    0.6821 H       1  UNL1        0.0283
     50 H          -2.2265    1.8778   -0.3491 H       1  UNL1        0.0643
@<TRIPOS>BOND
     1     1     2    1
     2     2     3   ar
     3     3     4   ar
     4     2     5   ar
     5     5     6   ar
     6     6     7   ar
     7     7     8    1
     8     8     9   ar
     9     9    10   ar
    10    10    11   ar
    11    11    12    1
    12    12    13   ar
    13    13    14   ar
    14    14    15   ar
    15    15    16   ar
    16    15    17    1
    17    17    18   ar
    18    18    19   ar
    19    19    20   ar
    20    20    21   ar
    21    20    22    1
    22    22    23   ar
    23    23    24   ar
    24    24    25   ar
    25    25    26   ar
    26    25    27    1
    27    11    28   ar
    28    28    29   ar
    29    29    30    1
    30    30    31    2
    31    30    32    2
    32     7     4   ar
    33    30     4    1
    34    29     8   ar
    35    16    12   ar
    36    21    17   ar
    37    26    22   ar
    38     1    33    1
    39     1    34    1
    40     1    35    1
    41     3    36    1
    42     5    37    1
    43     6    38    1
    44     9    39    1
    45    10    40    1
    46    13    41    1
    47    14    42    1
    48    18    43    1
    49    19    44    1
    50    23    45    1
    51    24    46    1
    52    27    47    1
    53    27    48    1
    54    27    49    1
    55    28    50    1
