@<TRIPOS>MOLECULE
*****
 33 35 0 0 0
SMALL
GASTEIGER

@<TRIPOS>ATOM
      1 C          -2.4680    2.8723   -0.6730 C.3     1  UNL1        0.0000
      2 C          -2.2633    1.4401   -0.3080 C.2     1  UNL1        0.0000
      3 C          -3.3118    0.4675   -0.0302 C.2     1  UNL1        0.0000
      4 C          -2.7428   -0.6812    0.2524 C.2     1  UNL1        0.0000
      5 C          -3.4105   -1.9503    0.5972 C.3     1  UNL1        0.0000
      6 N          -1.0929    0.8565   -0.1866 N.2     1  UNL1        1.0000
      7 B           0.2883    1.4455   -0.3735 B       1  UNL1        0.0000
      8 F           0.3511    1.9108   -1.7738 F       1  UNL1        0.0000
      9 N           1.3692    0.4073   -0.1324 N.ar    1  UNL1        0.0000
     10 C           2.7359    0.5015   -0.1911 C.ar    1  UNL1        0.0000
     11 C           3.4251    1.7692   -0.5361 C.3     1  UNL1        0.0000
     12 C           3.2976   -0.7154    0.1093 C.ar    1  UNL1        0.0000
     13 F           0.4874    2.6380    0.4346 F       1  UNL1        0.0000
     14 C          -1.3020   -0.4944    0.1679 C.2     1  UNL1        0.0000
     15 C          -0.2945   -1.3203    0.3560 C.2     1  UNL1        0.0000
     16 C           1.0767   -0.8517    0.2004 C.ar    1  UNL1        0.0000
     17 C           2.2646   -1.5867    0.3605 C.ar    1  UNL1        0.0000
     18 C           2.3539   -3.0264    0.7303 C.3     1  UNL1        0.0000
     19 H          -3.3998    3.2388   -0.2333 H       1  UNL1        0.0000
     20 H          -1.5770    3.4491   -0.3197 H       1  UNL1        0.0000
     21 H          -2.4558    2.9054   -1.7885 H       1  UNL1        0.0000
     22 H          -4.3656    0.7182   -0.0685 H       1  UNL1        0.0000
     23 H          -3.3557   -2.1231    1.6956 H       1  UNL1        0.0000
     24 H          -4.5035   -1.9179    0.3615 H       1  UNL1        0.0000
     25 H          -2.9409   -2.7899    0.0232 H       1  UNL1        0.0000
     26 H           4.5124    1.6723   -0.5238 H       1  UNL1        0.0000
     27 H           3.1496    2.5565    0.2218 H       1  UNL1        0.0000
     28 H           3.0939    2.1371   -1.5333 H       1  UNL1        0.0000
     29 H           4.3470   -0.9559    0.1450 H       1  UNL1        0.0000
     30 H          -0.4713   -2.3665    0.6308 H       1  UNL1        0.0000
     31 H           1.5363   -3.3384    1.4063 H       1  UNL1        0.0000
     32 H           2.3174   -3.6410   -0.2006 H       1  UNL1        0.0000
     33 H           3.3485   -3.2272    1.1798 H       1  UNL1        0.0000
@<TRIPOS>UNITY_ATOM_ATTR
6 1
charge 1
7 1
charge -1
@<TRIPOS>BOND
     1     1     2    1
     2     2     3    1
     3     3     4    2
     4     4     5    1
     5     2     6    2
     6     6     7    1
     7     7     8    1
     8     7     9    1
     9     9    10   ar
    10    10    11    1
    11    10    12   ar
    12     7    13    1
    13     6    14    1
    14    14    15    2
    15    15    16    1
    16    16    17   ar
    17    17    18    1
    18    14     4    1
    19    16     9   ar
    20    17    12   ar
    21     1    19    1
    22     1    20    1
    23     1    21    1
    24     3    22    1
    25     5    23    1
    26     5    24    1
    27     5    25    1
    28    11    26    1
    29    11    27    1
    30    11    28    1
    31    12    29    1
    32    15    30    1
    33    18    31    1
    34    18    32    1
    35    18    33    1
