@<TRIPOS>MOLECULE
*****
 48 55 0 0 0
SMALL
GASTEIGER

@<TRIPOS>ATOM
      1 SI          6.4526    2.2230    1.4403 Si      1  UNL1        0.0000
      2 C           6.9400    0.6622    0.5420 C.2     1  UNL1        0.0000
      3 C           5.8507   -0.0323    0.1611 C.ar    1  UNL1        0.0000
      4 C           5.9135   -1.3661   -0.4142 C.ar    1  UNL1        0.0000
      5 C           4.7796   -2.0611   -0.6193 C.ar    1  UNL1        0.0000
      6 C           3.5304   -1.4194   -0.3393 C.ar    1  UNL1        0.0000
      7 S           2.0558   -2.2566   -0.4871 S.2     1  UNL1        0.0000
      8 C           1.0871   -0.8554   -0.1590 C.ar    1  UNL1        0.0000
      9 C           1.9698    0.2199    0.0174 C.ar    1  UNL1        0.0000
     10 C           1.3528    1.5155    0.0795 C.ar    1  UNL1        0.0000
     11 C           1.8762    2.7711    0.0128 C.ar    1  UNL1        0.0000
     12 O           0.8487    3.6722    0.0879 O.2     1  UNL1        0.0000
     13 C          -0.3141    2.9535    0.1479 C.ar    1  UNL1        0.0000
     14 C          -0.0490    1.6019    0.1069 C.ar    1  UNL1        0.0000
     15 C          -1.0010    0.5713    0.0625 C.ar    1  UNL1        0.0000
     16 C          -2.4376    0.7714    0.1276 C.ar    1  UNL1        0.0000
     17 C          -3.3957   -0.2684    0.0558 C.ar    1  UNL1        0.0000
     18 C          -4.8336   -0.0389    0.1529 C.ar    1  UNL1        0.0000
     19 C          -5.6659   -0.7845    0.9871 C.ar    1  UNL1        0.0000
     20 C          -7.0250   -0.4822    1.0425 C.ar    1  UNL1        0.0000
     21 C          -7.5205    0.5616    0.2734 C.ar    1  UNL1        0.0000
     22 C          -6.6301    1.2678   -0.5152 C.ar    1  UNL1        0.0000
     23 N          -5.3079    0.9987   -0.5843 N.ar    1  UNL1        0.0000
     24 C          -2.7554   -1.5035   -0.1247 C.ar    1  UNL1        0.0000
     25 C          -3.3730   -2.7190   -0.3114 C.ar    1  UNL1        0.0000
     26 N          -2.3890   -3.6649   -0.4535 N.ar    1  UNL1        0.0000
     27 C          -1.1486   -3.0724   -0.3779 C.ar    1  UNL1        0.0000
     28 C          -1.3247   -1.7188   -0.1990 C.ar    1  UNL1        0.0000
     29 C          -0.3436   -0.7085   -0.0985 C.ar    1  UNL1        0.0000
     30 C           3.3476   -0.1078    0.0928 C.ar    1  UNL1        0.0000
     31 C           4.5394    0.6138    0.4725 C.ar    1  UNL1        0.0000
     32 C           4.6616    1.7323    1.2135 C.2     1  UNL1        0.0000
     33 H           6.8676    2.2100    2.8633 H       1  UNL1        0.0000
     34 H           6.8002    3.4469    0.6796 H       1  UNL1        0.0000
     35 H           7.9726    0.3664    0.4462 H       1  UNL1        0.0000
     36 H           6.8818   -1.8077   -0.6233 H       1  UNL1        0.0000
     37 H           4.8059   -3.0718   -1.0130 H       1  UNL1        0.0000
     38 H           2.8546    3.2074   -0.1123 H       1  UNL1        0.0000
     39 H          -1.2143    3.5511    0.1820 H       1  UNL1        0.0000
     40 H          -2.8197    1.7865    0.2427 H       1  UNL1        0.0000
     41 H          -5.2637   -1.5825    1.6030 H       1  UNL1        0.0000
     42 H          -7.6869   -1.0539    1.6863 H       1  UNL1        0.0000
     43 H          -8.5722    0.8235    0.2925 H       1  UNL1        0.0000
     44 H          -6.9643    2.0973   -1.1318 H       1  UNL1        0.0000
     45 H          -4.4133   -3.0082   -0.3707 H       1  UNL1        0.0000
     46 H          -2.5486   -4.6524   -0.6061 H       1  UNL1        0.0000
     47 H          -0.2753   -3.6977   -0.4764 H       1  UNL1        0.0000
     48 H           3.8843    2.3085    1.6841 H       1  UNL1        0.0000
@<TRIPOS>BOND
     1     1     2    1
     2     2     3    2
     3     3     4   ar
     4     4     5   ar
     5     5     6   ar
     6     6     7   ar
     7     7     8   ar
     8     8     9   ar
     9     9    10   ar
    10    10    11   ar
    11    11    12   ar
    12    12    13   ar
    13    13    14   ar
    14    14    15   ar
    15    15    16   ar
    16    16    17   ar
    17    17    18    1
    18    18    19   ar
    19    19    20   ar
    20    20    21   ar
    21    21    22   ar
    22    22    23   ar
    23    17    24   ar
    24    24    25   ar
    25    25    26   ar
    26    26    27   ar
    27    27    28   ar
    28    28    29   ar
    29     9    30   ar
    30    30    31   ar
    31    31    32    2
    32    32     1    1
    33    31     3   ar
    34    30     6   ar
    35    29     8   ar
    36    14    10   ar
    37    29    15   ar
    38    23    18   ar
    39    28    24   ar
    40     1    33    1
    41     1    34    1
    42     2    35    1
    43     4    36    1
    44     5    37    1
    45    11    38    1
    46    13    39    1
    47    16    40    1
    48    19    41    1
    49    20    42    1
    50    21    43    1
    51    22    44    1
    52    25    45    1
    53    26    46    1
    54    27    47    1
    55    32    48    1
