@<TRIPOS>MOLECULE
*****
 34 37 0 0 0
SMALL
GASTEIGER

@<TRIPOS>ATOM
      1 C          -2.0599    0.3084    1.8233 C.3     1  UNL1       -0.0390
      2 C          -2.4109   -0.0589    0.4072 C.ar    1  UNL1       -0.0398
      3 C          -3.4745   -0.9435    0.1664 C.ar    1  UNL1       -0.0582
      4 C          -3.8358   -1.2871   -1.1375 C.ar    1  UNL1       -0.0615
      5 C          -3.1457   -0.7469   -2.2189 C.ar    1  UNL1       -0.0611
      6 C          -2.0842    0.1299   -1.9969 C.ar    1  UNL1       -0.0508
      7 C          -1.6953    0.4647   -0.6899 C.ar    1  UNL1        0.0207
      8 C          -0.5769    1.3893   -0.5087 C.ar    1  UNL1        0.1459
      9 N          -0.7421    2.7032   -0.5375 N.ar    1  UNL1       -0.2349
     10 C           0.4819    3.2509   -0.2983 C.ar    1  UNL1        0.0538
     11 C           1.4292    2.2728   -0.1267 C.ar    1  UNL1        0.0667
     12 N           0.7620    1.0595   -0.2821 N.ar    1  UNL1       -0.2922
     13 C           1.4422   -0.1940   -0.1977 C.ar    1  UNL1        0.0557
     14 C           2.8256   -0.1402    0.0767 C.ar    1  UNL1       -0.0011
     15 C           3.5631   -1.3259    0.1794 C.ar    1  UNL1       -0.0526
     16 C           2.9360   -2.5584    0.0077 C.ar    1  UNL1       -0.0611
     17 C           1.5724   -2.6107   -0.2699 C.ar    1  UNL1       -0.0598
     18 C           0.8235   -1.4342   -0.3750 C.ar    1  UNL1       -0.0372
     19 C           3.4997    1.1516    0.2514 C.ar    1  UNL1       -0.0506
     20 C           2.8158    2.2982    0.1472 C.ar    1  UNL1       -0.0357
     21 H          -1.0585   -0.0546    2.0748 H       1  UNL1        0.0278
     22 H          -2.1015    1.3938    1.9597 H       1  UNL1        0.0278
     23 H          -2.7614   -0.1362    2.5373 H       1  UNL1        0.0278
     24 H          -4.0379   -1.3640    0.9968 H       1  UNL1        0.0620
     25 H          -4.6670   -1.9667   -1.3083 H       1  UNL1        0.0618
     26 H          -3.4379   -0.9999   -3.2346 H       1  UNL1        0.0618
     27 H          -1.5589    0.5598   -2.8474 H       1  UNL1        0.0625
     28 H           0.6185    4.3236   -0.2590 H       1  UNL1        0.0851
     29 H           4.6292   -1.3003    0.3916 H       1  UNL1        0.0624
     30 H           3.5108   -3.4777    0.0870 H       1  UNL1        0.0618
     31 H           1.0848   -3.5734   -0.4083 H       1  UNL1        0.0618
     32 H          -0.2283   -1.5461   -0.6004 H       1  UNL1        0.0638
     33 H           4.5639    1.1600    0.4622 H       1  UNL1        0.0625
     34 H           3.3182    3.2528    0.2731 H       1  UNL1        0.0639
@<TRIPOS>BOND
     1     1     2    1
     2     2     3   ar
     3     3     4   ar
     4     4     5   ar
     5     5     6   ar
     6     2     7   ar
     7     7     8    1
     8     8     9   ar
     9     9    10   ar
    10    10    11   ar
    11    11    12   ar
    12    12    13   ar
    13    13    14   ar
    14    14    15   ar
    15    15    16   ar
    16    16    17   ar
    17    17    18   ar
    18    14    19   ar
    19    19    20   ar
    20     7     6   ar
    21    12     8   ar
    22    20    11   ar
    23    18    13   ar
    24     1    21    1
    25     1    22    1
    26     1    23    1
    27     3    24    1
    28     4    25    1
    29     5    26    1
    30     6    27    1
    31    10    28    1
    32    15    29    1
    33    16    30    1
    34    17    31    1
    35    18    32    1
    36    19    33    1
    37    20    34    1
