@<TRIPOS>MOLECULE
*****
 38 40 0 0 0
SMALL
GASTEIGER

@<TRIPOS>ATOM
      1 C          -0.8093   -2.9681    0.5151 C.3     1  UNL1       -0.0014
      2 C          -1.1160   -2.0557   -0.6426 C.2     1  UNL1        0.1610
      3 C          -1.1523   -0.6034   -0.3727 C.ar    1  UNL1        0.0283
      4 C           0.0224    0.1327   -0.0618 C.ar    1  UNL1       -0.0054
      5 C           1.3312   -0.4232   -0.0421 C.ar    1  UNL1       -0.0323
      6 C           2.4923    0.3121    0.2685 C.ar    1  UNL1        0.0298
      7 N           3.7579   -0.2901    0.2938 N.pl3   1  UNL1       -0.3360
      8 C           4.9364    0.5343    0.5559 C.3     1  UNL1        0.0004
      9 C           3.9858   -1.4414   -0.5827 C.3     1  UNL1        0.0004
     10 C           2.2929    1.6606    0.5891 C.ar    1  UNL1       -0.0401
     11 C           1.0245    2.2544    0.5605 C.ar    1  UNL1       -0.0523
     12 C          -0.1131    1.5138    0.2308 C.ar    1  UNL1       -0.0168
     13 C          -1.3722    2.1396    0.1869 C.ar    1  UNL1       -0.0505
     14 C          -2.4921    1.3939   -0.1375 C.ar    1  UNL1       -0.0429
     15 C          -2.3891    0.0320   -0.4149 C.ar    1  UNL1       -0.0331
     16 C          -3.7287   -0.5348   -0.7771 C.3     1  UNL1       -0.0264
     17 C          -4.6716    0.5458   -0.2291 C.3     1  UNL1       -0.0450
     18 C          -3.9019    1.8714   -0.2916 C.3     1  UNL1       -0.0271
     19 O          -1.3698   -2.4760   -1.7671 O.2     1  UNL1       -0.2923
     20 H          -0.6632   -2.4054    1.4413 H       1  UNL1        0.0309
     21 H           0.0993   -3.5358    0.2989 H       1  UNL1        0.0309
     22 H          -1.6503   -3.6517    0.6604 H       1  UNL1        0.0309
     23 H           1.4367   -1.4765   -0.2820 H       1  UNL1        0.0642
     24 H           5.1007    1.2560   -0.2518 H       1  UNL1        0.0428
     25 H           5.8364   -0.0855    0.6390 H       1  UNL1        0.0428
     26 H           4.8482    1.0628    1.5115 H       1  UNL1        0.0428
     27 H           3.4166   -2.3141   -0.2462 H       1  UNL1        0.0428
     28 H           3.7227   -1.2069   -1.6203 H       1  UNL1        0.0428
     29 H           5.0384   -1.7468   -0.5728 H       1  UNL1        0.0428
     30 H           3.1259    2.3038    0.8556 H       1  UNL1        0.0636
     31 H           0.9436    3.3129    0.7998 H       1  UNL1        0.0624
     32 H          -1.4739    3.2018    0.3944 H       1  UNL1        0.0626
     33 H          -3.9233   -1.5012   -0.3038 H       1  UNL1        0.0314
     34 H          -3.8189   -0.6226   -1.8648 H       1  UNL1        0.0314
     35 H          -5.6210    0.5870   -0.7720 H       1  UNL1        0.0272
     36 H          -4.9089    0.3171    0.8194 H       1  UNL1        0.0272
     37 H          -4.2061    2.5480    0.5118 H       1  UNL1        0.0313
     38 H          -4.0304    2.3591   -1.2633 H       1  UNL1        0.0313
@<TRIPOS>BOND
     1     1     2    1
     2     2     3    1
     3     3     4   ar
     4     4     5   ar
     5     5     6   ar
     6     6     7    1
     7     7     8    1
     8     7     9    1
     9     6    10   ar
    10    10    11   ar
    11    11    12   ar
    12    12    13   ar
    13    13    14   ar
    14    14    15   ar
    15    15    16    1
    16    16    17    1
    17    17    18    1
    18     2    19    2
    19    15     3   ar
    20    12     4   ar
    21    18    14    1
    22     1    20    1
    23     1    21    1
    24     1    22    1
    25     5    23    1
    26     8    24    1
    27     8    25    1
    28     8    26    1
    29     9    27    1
    30     9    28    1
    31     9    29    1
    32    10    30    1
    33    11    31    1
    34    13    32    1
    35    16    33    1
    36    16    34    1
    37    17    35    1
    38    17    36    1
    39    18    37    1
    40    18    38    1
