@<TRIPOS>MOLECULE
*****
 43 46 0 0 0
SMALL
GASTEIGER

@<TRIPOS>ATOM
      1 C           0.1603   -2.5873   -1.8557 C.3     1  UNL1       -0.0014
      2 C           0.2836   -1.1928   -2.4101 C.2     1  UNL1        0.1610
      3 C          -0.6109   -0.1567   -1.8525 C.ar    1  UNL1        0.0283
      4 C          -0.4887    0.3015   -0.5132 C.ar    1  UNL1       -0.0054
      5 C           0.5272   -0.1234    0.3857 C.ar    1  UNL1       -0.0323
      6 C           0.6346    0.3316    1.7118 C.ar    1  UNL1        0.0304
      7 N           1.6315   -0.1129    2.5614 N.pl3   1  UNL1       -0.3255
      8 C           2.0563    0.6698    3.7354 C.3     1  UNL1        0.0357
      9 C           3.5412    0.4085    4.0413 C.3     1  UNL1        0.0634
     10 O           3.8502   -0.9672    4.3030 O.3     1  UNL1       -0.3767
     11 C           2.9969   -1.8826    3.6021 C.3     1  UNL1        0.0634
     12 C           2.4195   -1.3260    2.2895 C.3     1  UNL1        0.0357
     13 C          -0.3282    1.2572    2.1276 C.ar    1  UNL1       -0.0401
     14 C          -1.3329    1.7199    1.2702 C.ar    1  UNL1       -0.0523
     15 C          -1.4240    1.2617   -0.0469 C.ar    1  UNL1       -0.0168
     16 C          -2.4282    1.7601   -0.8963 C.ar    1  UNL1       -0.0505
     17 C          -2.5064    1.3022   -2.2000 C.ar    1  UNL1       -0.0429
     18 C          -1.6079    0.3508   -2.6797 C.ar    1  UNL1       -0.0331
     19 C          -1.8758    0.0548   -4.1247 C.3     1  UNL1       -0.0264
     20 C          -3.3038    0.5957   -4.2838 C.3     1  UNL1       -0.0450
     21 C          -3.4541    1.7393   -3.2725 C.3     1  UNL1       -0.0271
     22 O           1.0591   -0.9093   -3.3176 O.2     1  UNL1       -0.2923
     23 H          -0.0887   -3.2721   -2.6710 H       1  UNL1        0.0309
     24 H           1.1084   -2.8817   -1.3986 H       1  UNL1        0.0309
     25 H          -0.6311   -2.6518   -1.1039 H       1  UNL1        0.0309
     26 H           1.2866   -0.8064    0.0154 H       1  UNL1        0.0642
     27 H           1.9354    1.7456    3.5644 H       1  UNL1        0.0486
     28 H           1.4417    0.3772    4.5946 H       1  UNL1        0.0486
     29 H           4.1645    0.7335    3.1997 H       1  UNL1        0.0575
     30 H           3.8514    0.9868    4.9175 H       1  UNL1        0.0575
     31 H           3.5797   -2.7876    3.4028 H       1  UNL1        0.0575
     32 H           2.1844   -2.1617    4.2836 H       1  UNL1        0.0575
     33 H           1.7973   -2.1071    1.8375 H       1  UNL1        0.0486
     34 H           3.2340   -1.0773    1.5991 H       1  UNL1        0.0486
     35 H          -0.3282    1.6341    3.1468 H       1  UNL1        0.0636
     36 H          -2.0461    2.4471    1.6528 H       1  UNL1        0.0624
     37 H          -3.1343    2.5084   -0.5451 H       1  UNL1        0.0626
     38 H          -1.1726    0.6049   -4.7584 H       1  UNL1        0.0314
     39 H          -1.8339   -1.0135   -4.3545 H       1  UNL1        0.0314
     40 H          -4.0192   -0.2006   -4.0349 H       1  UNL1        0.0272
     41 H          -3.5192    0.9125   -5.3090 H       1  UNL1        0.0272
     42 H          -4.4838    1.8227   -2.9141 H       1  UNL1        0.0313
     43 H          -3.1259    2.6923   -3.6998 H       1  UNL1        0.0313
@<TRIPOS>BOND
     1     1     2    1
     2     2     3    1
     3     3     4   ar
     4     4     5   ar
     5     5     6   ar
     6     6     7    1
     7     7     8    1
     8     8     9    1
     9     9    10    1
    10    10    11    1
    11    11    12    1
    12     6    13   ar
    13    13    14   ar
    14    14    15   ar
    15    15    16   ar
    16    16    17   ar
    17    17    18   ar
    18    18    19    1
    19    19    20    1
    20    20    21    1
    21     2    22    2
    22    18     3   ar
    23    15     4   ar
    24    12     7    1
    25    21    17    1
    26     1    23    1
    27     1    24    1
    28     1    25    1
    29     5    26    1
    30     8    27    1
    31     8    28    1
    32     9    29    1
    33     9    30    1
    34    11    31    1
    35    11    32    1
    36    12    33    1
    37    12    34    1
    38    13    35    1
    39    14    36    1
    40    16    37    1
    41    19    38    1
    42    19    39    1
    43    20    40    1
    44    20    41    1
    45    21    42    1
    46    21    43    1
