@<TRIPOS>MOLECULE
*****
 46 49 0 0 0
SMALL
GASTEIGER

@<TRIPOS>ATOM
      1 C          -3.2382    3.0548   -0.8049 C.3     1  UNL1       -0.0014
      2 C          -2.8855    2.2828    0.4375 C.2     1  UNL1        0.1610
      3 C          -2.8883    0.8087    0.3417 C.ar    1  UNL1        0.0283
      4 C          -1.6697    0.0803    0.3402 C.ar    1  UNL1       -0.0054
      5 C          -0.3912    0.6833    0.4386 C.ar    1  UNL1       -0.0321
      6 C           0.7987   -0.0612    0.4308 C.ar    1  UNL1        0.0319
      7 N           2.0251    0.6229    0.4979 N.pl3   1  UNL1       -0.3145
      8 C           3.3187    0.2795    0.0718 C.ar    1  UNL1        0.0315
      9 C           4.4231    0.8010    0.7594 C.ar    1  UNL1       -0.0371
     10 C           5.7342    0.4615    0.3987 C.ar    1  UNL1       -0.0182
     11 C           5.9632   -0.4134   -0.6604 C.ar    1  UNL1        0.1202
     12 O           7.1838   -0.8270   -1.1163 O.3     1  UNL1       -0.4951
     13 C           8.3274   -0.3152   -0.4440 C.3     1  UNL1        0.0788
     14 C           4.8711   -0.9407   -1.3492 C.ar    1  UNL1       -0.0182
     15 C           3.5636   -0.6012   -0.9846 C.ar    1  UNL1       -0.0371
     16 C           0.7037   -1.4457    0.3040 C.ar    1  UNL1       -0.0399
     17 C          -0.5403   -2.0762    0.2127 C.ar    1  UNL1       -0.0523
     18 C          -1.7292   -1.3355    0.2299 C.ar    1  UNL1       -0.0168
     19 C          -2.9687   -1.9931    0.1448 C.ar    1  UNL1       -0.0505
     20 C          -4.1375   -1.2501    0.1566 C.ar    1  UNL1       -0.0429
     21 C          -4.1059    0.1415    0.2504 C.ar    1  UNL1       -0.0331
     22 C          -5.4989    0.6910    0.3181 C.3     1  UNL1       -0.0264
     23 C          -6.3179   -0.4895   -0.2228 C.3     1  UNL1       -0.0450
     24 C          -5.5442   -1.7618    0.1419 C.3     1  UNL1       -0.0271
     25 O          -2.5831    2.8289    1.4935 O.2     1  UNL1       -0.2923
     26 H          -4.1392    3.6453   -0.6200 H       1  UNL1        0.0309
     27 H          -3.4206    2.3876   -1.6520 H       1  UNL1        0.0309
     28 H          -2.4051    3.7144   -1.0625 H       1  UNL1        0.0309
     29 H          -0.3162    1.7661    0.5270 H       1  UNL1        0.0642
     30 H           1.9742    1.5006    1.0041 H       1  UNL1        0.1522
     31 H           4.2722    1.4745    1.5998 H       1  UNL1        0.0637
     32 H           6.5475    0.8958    0.9698 H       1  UNL1        0.0655
     33 H           8.3853    0.7743   -0.5367 H       1  UNL1        0.0660
     34 H           9.2148   -0.7376   -0.9251 H       1  UNL1        0.0660
     35 H           8.3392   -0.6245    0.6064 H       1  UNL1        0.0660
     36 H           5.0359   -1.6198   -2.1819 H       1  UNL1        0.0655
     37 H           2.7404   -1.0114   -1.5626 H       1  UNL1        0.0637
     38 H           1.5983   -2.0625    0.3153 H       1  UNL1        0.0636
     39 H          -0.5663   -3.1612    0.1341 H       1  UNL1        0.0624
     40 H          -3.0201   -3.0772    0.0805 H       1  UNL1        0.0626
     41 H          -5.7647    0.9127    1.3569 H       1  UNL1        0.0314
     42 H          -5.6435    1.5783   -0.3028 H       1  UNL1        0.0314
     43 H          -6.3834   -0.4097   -1.3170 H       1  UNL1        0.0272
     44 H          -7.3428   -0.4982    0.1610 H       1  UNL1        0.0272
     45 H          -5.6964   -2.5493   -0.6014 H       1  UNL1        0.0313
     46 H          -5.8235   -2.1239    1.1366 H       1  UNL1        0.0313
@<TRIPOS>BOND
     1     1     2    1
     2     2     3    1
     3     3     4   ar
     4     4     5   ar
     5     5     6   ar
     6     6     7    1
     7     7     8    1
     8     8     9   ar
     9     9    10   ar
    10    10    11   ar
    11    11    12    1
    12    12    13    1
    13    11    14   ar
    14    14    15   ar
    15     6    16   ar
    16    16    17   ar
    17    17    18   ar
    18    18    19   ar
    19    19    20   ar
    20    20    21   ar
    21    21    22    1
    22    22    23    1
    23    23    24    1
    24     2    25    2
    25    21     3   ar
    26    18     4   ar
    27    15     8   ar
    28    24    20    1
    29     1    26    1
    30     1    27    1
    31     1    28    1
    32     5    29    1
    33     7    30    1
    34     9    31    1
    35    10    32    1
    36    13    33    1
    37    13    34    1
    38    13    35    1
    39    14    36    1
    40    15    37    1
    41    16    38    1
    42    17    39    1
    43    19    40    1
    44    22    41    1
    45    22    42    1
    46    23    43    1
    47    23    44    1
    48    24    45    1
    49    24    46    1
