@<TRIPOS>MOLECULE
*****
 42 45 0 0 0
SMALL
GASTEIGER

@<TRIPOS>ATOM
      1 C          -2.1093    2.8020   -0.7931 C.3     1  UNL1       -0.0014
      2 C          -2.4205    1.9626    0.4167 C.2     1  UNL1        0.1610
      3 C          -2.2183    0.5057    0.2953 C.ar    1  UNL1        0.0283
      4 C          -0.9190   -0.0646    0.2881 C.ar    1  UNL1       -0.0054
      5 C           0.2715    0.6803    0.4788 C.ar    1  UNL1       -0.0321
      6 C           1.5441    0.0884    0.4571 C.ar    1  UNL1        0.0319
      7 N           2.6748    0.9091    0.6135 N.pl3   1  UNL1       -0.3145
      8 C           4.0126    0.7510    0.2114 C.ar    1  UNL1        0.0313
      9 C           4.3850   -0.0012   -0.9085 C.ar    1  UNL1       -0.0405
     10 C           5.7300   -0.1603   -1.2559 C.ar    1  UNL1       -0.0600
     11 C           6.7253    0.4276   -0.4802 C.ar    1  UNL1       -0.0616
     12 C           6.3752    1.1755    0.6403 C.ar    1  UNL1       -0.0600
     13 C           5.0291    1.3334    0.9825 C.ar    1  UNL1       -0.0405
     14 C           1.6245   -1.2835    0.2256 C.ar    1  UNL1       -0.0399
     15 C           0.4708   -2.0527    0.0506 C.ar    1  UNL1       -0.0523
     16 C          -0.8008   -1.4665    0.0839 C.ar    1  UNL1       -0.0168
     17 C          -1.9472   -2.2635   -0.0850 C.ar    1  UNL1       -0.0505
     18 C          -3.2001   -1.6756   -0.0353 C.ar    1  UNL1       -0.0429
     19 C          -3.3413   -0.3018    0.1554 C.ar    1  UNL1       -0.0331
     20 C          -4.7873    0.0900    0.1151 C.3     1  UNL1       -0.0264
     21 C          -5.4731   -1.2644    0.3449 C.3     1  UNL1       -0.0450
     22 C          -4.5310   -2.3346   -0.2208 C.3     1  UNL1       -0.0271
     23 O          -2.8460    2.4371    1.4645 O.2     1  UNL1       -0.2923
     24 H          -1.7770    2.1850   -1.6326 H       1  UNL1        0.0309
     25 H          -1.3180    3.5141   -0.5453 H       1  UNL1        0.0309
     26 H          -3.0129    3.3372   -1.0970 H       1  UNL1        0.0309
     27 H           0.2121    1.7527    0.6541 H       1  UNL1        0.0642
     28 H           2.5157    1.7169    1.2056 H       1  UNL1        0.1522
     29 H           3.6268   -0.4475   -1.5462 H       1  UNL1        0.0636
     30 H           5.9963   -0.7399   -2.1358 H       1  UNL1        0.0618
     31 H           7.7709    0.3039   -0.7490 H       1  UNL1        0.0618
     32 H           7.1477    1.6335    1.2522 H       1  UNL1        0.0618
     33 H           4.7802    1.9097    1.8700 H       1  UNL1        0.0636
     34 H           2.5883   -1.7856    0.2206 H       1  UNL1        0.0636
     35 H           0.5812   -3.1242   -0.1046 H       1  UNL1        0.0624
     36 H          -1.8615   -3.3350   -0.2479 H       1  UNL1        0.0626
     37 H          -5.0390    0.4985   -0.8690 H       1  UNL1        0.0314
     38 H          -5.0585    0.8026    0.8987 H       1  UNL1        0.0314
     39 H          -6.4719   -1.3082   -0.1004 H       1  UNL1        0.0272
     40 H          -5.5940   -1.4268    1.4252 H       1  UNL1        0.0272
     41 H          -4.7207   -2.5070   -1.2851 H       1  UNL1        0.0313
     42 H          -4.6149   -3.2738    0.3330 H       1  UNL1        0.0313
@<TRIPOS>BOND
     1     1     2    1
     2     2     3    1
     3     3     4   ar
     4     4     5   ar
     5     5     6   ar
     6     6     7    1
     7     7     8    1
     8     8     9   ar
     9     9    10   ar
    10    10    11   ar
    11    11    12   ar
    12    12    13   ar
    13     6    14   ar
    14    14    15   ar
    15    15    16   ar
    16    16    17   ar
    17    17    18   ar
    18    18    19   ar
    19    19    20    1
    20    20    21    1
    21    21    22    1
    22     2    23    2
    23    19     3   ar
    24    16     4   ar
    25    13     8   ar
    26    22    18    1
    27     1    24    1
    28     1    25    1
    29     1    26    1
    30     5    27    1
    31     7    28    1
    32     9    29    1
    33    10    30    1
    34    11    31    1
    35    12    32    1
    36    13    33    1
    37    14    34    1
    38    15    35    1
    39    17    36    1
    40    20    37    1
    41    20    38    1
    42    21    39    1
    43    21    40    1
    44    22    41    1
    45    22    42    1
