@<TRIPOS>MOLECULE
*****
 45 48 0 0 0
SMALL
GASTEIGER

@<TRIPOS>ATOM
      1 C          -3.0883   -2.2574   -1.9347 C.3     1  UNL1       -0.0014
      2 C          -2.1458   -2.0028   -0.7895 C.2     1  UNL1        0.1610
      3 C          -2.1507   -0.6484   -0.1972 C.ar    1  UNL1        0.0283
      4 C          -1.0375    0.2199   -0.3493 C.ar    1  UNL1       -0.0054
      5 C           0.1540   -0.1329   -1.0322 C.ar    1  UNL1       -0.0324
      6 C           1.2483    0.7385   -1.1618 C.ar    1  UNL1        0.0280
      7 N           2.3563    0.3151   -1.9040 N.pl3   1  UNL1       -0.3397
      8 C           3.6919    0.8305   -1.6149 C.3     1  UNL1        0.0344
      9 C           4.3744   -0.0142   -0.5639 C.ar    1  UNL1       -0.0304
     10 C           5.2073   -1.0800   -0.9373 C.ar    1  UNL1       -0.0571
     11 C           5.8240   -1.8717    0.0331 C.ar    1  UNL1       -0.0615
     12 C           5.6092   -1.6121    1.3853 C.ar    1  UNL1       -0.0617
     13 C           4.7758   -0.5634    1.7688 C.ar    1  UNL1       -0.0615
     14 C           4.1596    0.2303    0.8001 C.ar    1  UNL1       -0.0571
     15 C           1.1046    2.0292   -0.6558 C.ar    1  UNL1       -0.0403
     16 C          -0.0531    2.4141    0.0289 C.ar    1  UNL1       -0.0523
     17 C          -1.1232    1.5276    0.1983 C.ar    1  UNL1       -0.0168
     18 C          -2.2762    1.9405    0.8890 C.ar    1  UNL1       -0.0505
     19 C          -3.3304    1.0567    1.0447 C.ar    1  UNL1       -0.0429
     20 C          -3.2758   -0.2290    0.5066 C.ar    1  UNL1       -0.0331
     21 C          -4.5496   -0.9673    0.7877 C.3     1  UNL1       -0.0264
     22 C          -5.1404   -0.1304    1.9309 C.3     1  UNL1       -0.0450
     23 C          -4.6412    1.3047    1.7232 C.3     1  UNL1       -0.0271
     24 O          -1.3952   -2.8667   -0.3477 O.2     1  UNL1       -0.2923
     25 H          -3.5501   -1.3300   -2.2849 H       1  UNL1        0.0309
     26 H          -3.8718   -2.9480   -1.6129 H       1  UNL1        0.0309
     27 H          -2.5272   -2.6906   -2.7673 H       1  UNL1        0.0309
     28 H           0.2423   -1.1299   -1.4618 H       1  UNL1        0.0642
     29 H           2.3791   -0.7007   -1.9778 H       1  UNL1        0.1464
     30 H           3.7108    1.8869   -1.3292 H       1  UNL1        0.0511
     31 H           4.2760    0.7796   -2.5423 H       1  UNL1        0.0511
     32 H           5.3788   -1.3016   -1.9884 H       1  UNL1        0.0621
     33 H           6.4675   -2.6950   -0.2656 H       1  UNL1        0.0618
     34 H           6.0847   -2.2322    2.1405 H       1  UNL1        0.0618
     35 H           4.5977   -0.3680    2.8230 H       1  UNL1        0.0618
     36 H           3.4991    1.0351    1.1149 H       1  UNL1        0.0621
     37 H           1.8809    2.7751   -0.7899 H       1  UNL1        0.0636
     38 H          -0.1109    3.4284    0.4186 H       1  UNL1        0.0624
     39 H          -2.3474    2.9427    1.3041 H       1  UNL1        0.0626
     40 H          -5.2013   -0.9448   -0.0918 H       1  UNL1        0.0314
     41 H          -4.3793   -2.0001    1.1042 H       1  UNL1        0.0314
     42 H          -6.2323   -0.1919    1.9733 H       1  UNL1        0.0272
     43 H          -4.7578   -0.5096    2.8889 H       1  UNL1        0.0272
     44 H          -5.3084    1.8654    1.0605 H       1  UNL1        0.0313
     45 H          -4.5283    1.8300    2.6756 H       1  UNL1        0.0313
@<TRIPOS>BOND
     1     1     2    1
     2     2     3    1
     3     3     4   ar
     4     4     5   ar
     5     5     6   ar
     6     6     7    1
     7     7     8    1
     8     8     9    1
     9     9    10   ar
    10    10    11   ar
    11    11    12   ar
    12    12    13   ar
    13    13    14   ar
    14     6    15   ar
    15    15    16   ar
    16    16    17   ar
    17    17    18   ar
    18    18    19   ar
    19    19    20   ar
    20    20    21    1
    21    21    22    1
    22    22    23    1
    23     2    24    2
    24    20     3   ar
    25    17     4   ar
    26    14     9   ar
    27    23    19    1
    28     1    25    1
    29     1    26    1
    30     1    27    1
    31     5    28    1
    32     7    29    1
    33     8    30    1
    34     8    31    1
    35    10    32    1
    36    11    33    1
    37    12    34    1
    38    13    35    1
    39    14    36    1
    40    15    37    1
    41    16    38    1
    42    18    39    1
    43    21    40    1
    44    21    41    1
    45    22    42    1
    46    22    43    1
    47    23    44    1
    48    23    45    1
