@<TRIPOS>MOLECULE
*****
 38 40 0 0 0
SMALL
GASTEIGER

@<TRIPOS>ATOM
      1 C          -1.9782    3.0212    1.0456 C.3     1  UNL1       -0.0014
      2 C          -2.1442    1.6170    1.5628 C.2     1  UNL1        0.1610
      3 C          -1.5777    0.5192    0.7510 C.ar    1  UNL1        0.0282
      4 C          -0.1776    0.3606    0.5682 C.ar    1  UNL1       -0.0070
      5 C           0.7976    1.1677    1.1836 C.ar    1  UNL1       -0.0516
      6 C           2.1683    0.9678    0.9586 C.ar    1  UNL1       -0.0401
      7 C           2.6507   -0.0380    0.1113 C.ar    1  UNL1        0.0298
      8 N           4.0188   -0.2422   -0.1042 N.pl3   1  UNL1       -0.3360
      9 C           4.9749    0.7602    0.3628 C.3     1  UNL1        0.0004
     10 C           4.4420   -1.0256   -1.2642 C.3     1  UNL1        0.0004
     11 C           1.6711   -0.8640   -0.4696 C.ar    1  UNL1       -0.0329
     12 C           0.2854   -0.6917   -0.2624 C.ar    1  UNL1       -0.0152
     13 C          -0.6315   -1.5714   -0.8679 C.ar    1  UNL1       -0.0505
     14 C          -1.9892   -1.3995   -0.6575 C.ar    1  UNL1       -0.0429
     15 C          -2.4645   -0.3634    0.1441 C.ar    1  UNL1       -0.0331
     16 C          -3.9588   -0.4203    0.2478 C.3     1  UNL1       -0.0264
     17 C          -4.3101   -1.3175   -0.9475 C.3     1  UNL1       -0.0450
     18 C          -3.1120   -2.2513   -1.1609 C.3     1  UNL1       -0.0271
     19 O          -2.7595    1.3623    2.5935 O.2     1  UNL1       -0.2923
     20 H          -1.4692    3.0352    0.0779 H       1  UNL1        0.0309
     21 H          -1.3958    3.6060    1.7621 H       1  UNL1        0.0309
     22 H          -2.9669    3.4699    0.9153 H       1  UNL1        0.0309
     23 H           0.5145    1.9606    1.8721 H       1  UNL1        0.0624
     24 H           2.8485    1.6332    1.4818 H       1  UNL1        0.0636
     25 H           6.0059    0.4518    0.1555 H       1  UNL1        0.0428
     26 H           4.9151    0.8905    1.4487 H       1  UNL1        0.0428
     27 H           4.8103    1.7225   -0.1342 H       1  UNL1        0.0428
     28 H           4.1160   -2.0676   -1.1782 H       1  UNL1        0.0428
     29 H           5.5343   -1.0591   -1.3469 H       1  UNL1        0.0428
     30 H           4.0556   -0.5936   -2.1940 H       1  UNL1        0.0428
     31 H           1.9782   -1.6913   -1.1037 H       1  UNL1        0.0642
     32 H          -0.2850   -2.3930   -1.4900 H       1  UNL1        0.0626
     33 H          -4.4291    0.5623    0.1516 H       1  UNL1        0.0314
     34 H          -4.2534   -0.8886    1.1926 H       1  UNL1        0.0314
     35 H          -5.2462   -1.8648   -0.7987 H       1  UNL1        0.0272
     36 H          -4.4410   -0.6907   -1.8407 H       1  UNL1        0.0272
     37 H          -2.9963   -2.5180   -2.2151 H       1  UNL1        0.0313
     38 H          -3.2009   -3.1563   -0.5513 H       1  UNL1        0.0313
@<TRIPOS>BOND
     1     1     2    1
     2     2     3    1
     3     3     4   ar
     4     4     5   ar
     5     5     6   ar
     6     6     7   ar
     7     7     8    1
     8     8     9    1
     9     8    10    1
    10     7    11   ar
    11    11    12   ar
    12    12    13   ar
    13    13    14   ar
    14    14    15   ar
    15    15    16    1
    16    16    17    1
    17    17    18    1
    18     2    19    2
    19    15     3   ar
    20    12     4   ar
    21    18    14    1
    22     1    20    1
    23     1    21    1
    24     1    22    1
    25     5    23    1
    26     6    24    1
    27     9    25    1
    28     9    26    1
    29     9    27    1
    30    10    28    1
    31    10    29    1
    32    10    30    1
    33    11    31    1
    34    13    32    1
    35    16    33    1
    36    16    34    1
    37    17    35    1
    38    17    36    1
    39    18    37    1
    40    18    38    1
