@<TRIPOS>MOLECULE
*****
 38 40 0 0 0
SMALL
GASTEIGER

@<TRIPOS>ATOM
      1 C          -3.1969    2.4510   -0.0895 C.3     1  UNL1       -0.0014
      2 C          -2.7201    1.3921   -1.0476 C.2     1  UNL1        0.1610
      3 C          -1.6109    0.5251   -0.6001 C.ar    1  UNL1        0.0283
      4 C          -0.2790    1.0072   -0.4879 C.ar    1  UNL1       -0.0054
      5 C           0.0937    2.3204   -0.8509 C.ar    1  UNL1       -0.0532
      6 C           1.4062    2.7679   -0.7254 C.ar    1  UNL1       -0.0594
      7 C           2.3871    1.9120   -0.2399 C.ar    1  UNL1       -0.0401
      8 C           2.0781    0.5912    0.1247 C.ar    1  UNL1        0.0370
      9 N           3.0899   -0.2963    0.5848 N.pl3   1  UNL1       -0.3355
     10 C           3.8490   -0.8483   -0.5416 C.3     1  UNL1        0.0004
     11 C           3.9169    0.2445    1.6641 C.3     1  UNL1        0.0004
     12 C           0.7365    0.1251   -0.0052 C.ar    1  UNL1        0.0041
     13 C           0.3832   -1.2027    0.3331 C.ar    1  UNL1       -0.0488
     14 C          -0.9231   -1.6422    0.1978 C.ar    1  UNL1       -0.0429
     15 C          -1.9176   -0.7880   -0.2657 C.ar    1  UNL1       -0.0331
     16 C          -3.2279   -1.5081   -0.3643 C.3     1  UNL1       -0.0264
     17 C          -2.9673   -2.7309    0.5271 C.3     1  UNL1       -0.0450
     18 C          -1.4615   -3.0144    0.4524 C.3     1  UNL1       -0.0271
     19 O          -3.2365    1.2103   -2.1454 O.2     1  UNL1       -0.2923
     20 H          -4.2515    2.2745    0.1389 H       1  UNL1        0.0309
     21 H          -2.6347    2.4249    0.8481 H       1  UNL1        0.0309
     22 H          -3.0737    3.4358   -0.5473 H       1  UNL1        0.0309
     23 H          -0.6364    3.0160   -1.2594 H       1  UNL1        0.0624
     24 H           1.6659    3.7817   -1.0190 H       1  UNL1        0.0618
     25 H           3.4071    2.2787   -0.1723 H       1  UNL1        0.0636
     26 H           4.5361   -1.6216   -0.1805 H       1  UNL1        0.0428
     27 H           4.4423   -0.0785   -1.0486 H       1  UNL1        0.0428
     28 H           3.1860   -1.3234   -1.2738 H       1  UNL1        0.0428
     29 H           3.2961    0.6683    2.4618 H       1  UNL1        0.0428
     30 H           4.5065   -0.5639    2.1105 H       1  UNL1        0.0428
     31 H           4.6171    1.0089    1.3097 H       1  UNL1        0.0428
     32 H           1.1418   -1.8920    0.6976 H       1  UNL1        0.0627
     33 H          -3.4160   -1.8078   -1.4005 H       1  UNL1        0.0314
     34 H          -4.0669   -0.9183    0.0152 H       1  UNL1        0.0314
     35 H          -3.2354   -2.4830    1.5638 H       1  UNL1        0.0272
     36 H          -3.5713   -3.5963    0.2370 H       1  UNL1        0.0272
     37 H          -1.2235   -3.6746   -0.3879 H       1  UNL1        0.0313
     38 H          -1.0893   -3.4451    1.3861 H       1  UNL1        0.0313
@<TRIPOS>BOND
     1     1     2    1
     2     2     3    1
     3     3     4   ar
     4     4     5   ar
     5     5     6   ar
     6     6     7   ar
     7     7     8   ar
     8     8     9    1
     9     9    10    1
    10     9    11    1
    11     8    12   ar
    12    12    13   ar
    13    13    14   ar
    14    14    15   ar
    15    15    16    1
    16    16    17    1
    17    17    18    1
    18     2    19    2
    19    15     3   ar
    20    12     4   ar
    21    18    14    1
    22     1    20    1
    23     1    21    1
    24     1    22    1
    25     5    23    1
    26     6    24    1
    27     7    25    1
    28    10    26    1
    29    10    27    1
    30    10    28    1
    31    11    29    1
    32    11    30    1
    33    11    31    1
    34    13    32    1
    35    16    33    1
    36    16    34    1
    37    17    35    1
    38    17    36    1
    39    18    37    1
    40    18    38    1
