@<TRIPOS>MOLECULE
*****
 43 45 0 0 0
SMALL
GASTEIGER

@<TRIPOS>ATOM
      1 C           6.9282   -0.1609   -1.0481 C.3     1  UNL1       -0.0014
      2 C           6.2245   -0.5728    0.2184 C.2     1  UNL1        0.1601
      3 C           4.7313   -0.5764    0.2482 C.ar    1  UNL1        0.0171
      4 C           4.0876   -0.9532    1.4331 C.ar    1  UNL1       -0.0507
      5 C           2.6910   -0.9719    1.5068 C.ar    1  UNL1       -0.0539
      6 C           1.9144   -0.6032    0.4026 C.ar    1  UNL1       -0.0238
      7 C           0.4513   -0.6646    0.5114 C.2     1  UNL1       -0.0402
      8 C          -0.3846    0.2260   -0.0485 C.2     1  UNL1        0.0025
      9 N          -1.7845    0.2913   -0.0188 N.pl3   1  UNL1       -0.2759
     10 C          -2.4277    1.5567   -0.2737 C.ar    1  UNL1        0.0382
     11 C          -3.6382    1.6202   -0.9880 C.ar    1  UNL1       -0.0400
     12 C          -4.2667    2.8432   -1.2399 C.ar    1  UNL1       -0.0600
     13 C          -3.6977    4.0275   -0.7800 C.ar    1  UNL1       -0.0616
     14 C          -2.5018    3.9903   -0.0681 C.ar    1  UNL1       -0.0600
     15 C          -1.8728    2.7669    0.1821 C.ar    1  UNL1       -0.0400
     16 C          -2.5587   -0.8944    0.2338 C.ar    1  UNL1        0.0382
     17 C          -3.6345   -0.8646    1.1386 C.ar    1  UNL1       -0.0400
     18 C          -4.3974   -2.0084    1.3870 C.ar    1  UNL1       -0.0600
     19 C          -4.0996   -3.2007    0.7313 C.ar    1  UNL1       -0.0616
     20 C          -3.0414   -3.2503   -0.1732 C.ar    1  UNL1       -0.0600
     21 C          -2.2780   -2.1062   -0.4206 C.ar    1  UNL1       -0.0400
     22 C           2.5617   -0.2427   -0.7863 C.ar    1  UNL1       -0.0539
     23 C           3.9601   -0.2235   -0.8642 C.ar    1  UNL1       -0.0507
     24 O           6.8589   -0.9032    1.2184 O.2     1  UNL1       -0.2924
     25 H           6.6659    0.8672   -1.3108 H       1  UNL1        0.0309
     26 H           8.0102   -0.2032   -0.8879 H       1  UNL1        0.0309
     27 H           6.6790   -0.8482   -1.8606 H       1  UNL1        0.0309
     28 H           4.6698   -1.2367    2.3085 H       1  UNL1        0.0625
     29 H           2.2178   -1.2698    2.4405 H       1  UNL1        0.0624
     30 H           0.0564   -1.4729    1.1216 H       1  UNL1        0.0636
     31 H           0.0369    1.0616   -0.6043 H       1  UNL1        0.0787
     32 H          -4.0950    0.7113   -1.3729 H       1  UNL1        0.0636
     33 H          -5.1990    2.8670   -1.7980 H       1  UNL1        0.0618
     34 H          -4.1870    4.9783   -0.9743 H       1  UNL1        0.0618
     35 H          -2.0588    4.9120    0.3001 H       1  UNL1        0.0618
     36 H          -0.9547    2.7658    0.7644 H       1  UNL1        0.0636
     37 H          -3.8728    0.0548    1.6686 H       1  UNL1        0.0636
     38 H          -5.2214   -1.9661    2.0943 H       1  UNL1        0.0618
     39 H          -4.6932   -4.0905    0.9241 H       1  UNL1        0.0618
     40 H          -2.8109   -4.1775   -0.6911 H       1  UNL1        0.0618
     41 H          -1.4701   -2.1598   -1.1460 H       1  UNL1        0.0636
     42 H           1.9851    0.0166   -1.6720 H       1  UNL1        0.0624
     43 H           4.4163    0.0646   -1.8065 H       1  UNL1        0.0625
@<TRIPOS>BOND
     1     1     2    1
     2     2     3    1
     3     3     4   ar
     4     4     5   ar
     5     5     6   ar
     6     6     7    1
     7     7     8    2
     8     8     9    1
     9     9    10    1
    10    10    11   ar
    11    11    12   ar
    12    12    13   ar
    13    13    14   ar
    14    14    15   ar
    15     9    16    1
    16    16    17   ar
    17    17    18   ar
    18    18    19   ar
    19    19    20   ar
    20    20    21   ar
    21     6    22   ar
    22    22    23   ar
    23     2    24    2
    24    23     3   ar
    25    15    10   ar
    26    21    16   ar
    27     1    25    1
    28     1    26    1
    29     1    27    1
    30     4    28    1
    31     5    29    1
    32     7    30    1
    33     8    31    1
    34    11    32    1
    35    12    33    1
    36    13    34    1
    37    14    35    1
    38    15    36    1
    39    17    37    1
    40    18    38    1
    41    19    39    1
    42    20    40    1
    43    21    41    1
    44    22    42    1
    45    23    43    1
