@<TRIPOS>MOLECULE
*****
 44 47 0 0 0
SMALL
GASTEIGER

@<TRIPOS>ATOM
      1 C          -2.1915    1.2209    1.8448 C.3     1  UNL1       -0.0528
      2 C          -1.6291   -0.1188    1.3633 C.3     1  UNL1        0.0275
      3 C          -2.3627   -0.7952    0.2136 C.ar    1  UNL1       -0.0386
      4 C          -2.1221   -2.1571   -0.0536 C.ar    1  UNL1       -0.0580
      5 C          -2.7745   -2.8146   -1.0981 C.ar    1  UNL1       -0.0615
      6 C          -3.6860   -2.1257   -1.8914 C.ar    1  UNL1       -0.0617
      7 C          -3.9461   -0.7813   -1.6390 C.ar    1  UNL1       -0.0615
      8 C          -3.2928   -0.1223   -0.5941 C.ar    1  UNL1       -0.0580
      9 C          -0.1844   -0.0223    0.9547 C.ar    1  UNL1        0.0982
     10 N           0.7531   -0.6493    1.6837 N.ar    1  UNL1       -0.1509
     11 N           1.9014   -0.3363    1.0315 N.ar    1  UNL1       -0.1495
     12 C           3.1671   -0.8082    1.4697 C.ar    1  UNL1        0.0862
     13 C           3.2584   -1.6278    2.6037 C.ar    1  UNL1       -0.0345
     14 C           4.5053   -2.0852    3.0340 C.ar    1  UNL1       -0.0597
     15 C           5.6598   -1.7295    2.3367 C.ar    1  UNL1       -0.0616
     16 C           5.5732   -0.9171    1.2063 C.ar    1  UNL1       -0.0597
     17 C           4.3303   -0.4549    0.7701 C.ar    1  UNL1       -0.0345
     18 N           1.7698    0.4643   -0.0519 N.ar    1  UNL1       -0.1468
     19 C           0.4480    0.6732   -0.1123 C.ar    1  UNL1        0.1168
     20 C          -0.1245    1.5116   -1.1486 C.ar    1  UNL1        0.0040
     21 C          -0.5177    0.9531   -2.3688 C.ar    1  UNL1       -0.0525
     22 C          -1.0785    1.7610   -3.3600 C.ar    1  UNL1       -0.0611
     23 C          -1.2392    3.1289   -3.1374 C.ar    1  UNL1       -0.0617
     24 C          -0.8348    3.6929   -1.9271 C.ar    1  UNL1       -0.0611
     25 C          -0.2742    2.8872   -0.9350 C.ar    1  UNL1       -0.0525
     26 H          -1.6131    1.6000    2.6956 H       1  UNL1        0.0239
     27 H          -2.1661    1.9925    1.0701 H       1  UNL1        0.0239
     28 H          -3.2314    1.1111    2.1700 H       1  UNL1        0.0239
     29 H          -1.7085   -0.7992    2.2248 H       1  UNL1        0.0411
     30 H          -1.4121   -2.7162    0.5547 H       1  UNL1        0.0620
     31 H          -2.5711   -3.8655   -1.2880 H       1  UNL1        0.0618
     32 H          -4.1949   -2.6344   -2.7052 H       1  UNL1        0.0618
     33 H          -4.6561   -0.2397   -2.2591 H       1  UNL1        0.0618
     34 H          -3.5179    0.9300   -0.4394 H       1  UNL1        0.0620
     35 H           2.3690   -1.9156    3.1610 H       1  UNL1        0.0639
     36 H           4.5755   -2.7187    3.9140 H       1  UNL1        0.0618
     37 H           6.6287   -2.0866    2.6738 H       1  UNL1        0.0618
     38 H           6.4741   -0.6423    0.6630 H       1  UNL1        0.0618
     39 H           4.2830    0.1779   -0.1146 H       1  UNL1        0.0639
     40 H          -0.3984   -0.1134   -2.5476 H       1  UNL1        0.0624
     41 H          -1.3897    1.3211   -4.3038 H       1  UNL1        0.0618
     42 H          -1.6734    3.7566   -3.9108 H       1  UNL1        0.0618
     43 H          -0.9526    4.7606   -1.7567 H       1  UNL1        0.0618
     44 H           0.0468    3.3346    0.0034 H       1  UNL1        0.0624
@<TRIPOS>BOND
     1     1     2    1
     2     2     3    1
     3     3     4   ar
     4     4     5   ar
     5     5     6   ar
     6     6     7   ar
     7     7     8   ar
     8     2     9    1
     9     9    10   ar
    10    10    11   ar
    11    11    12    1
    12    12    13   ar
    13    13    14   ar
    14    14    15   ar
    15    15    16   ar
    16    16    17   ar
    17    11    18   ar
    18    18    19   ar
    19    19    20    1
    20    20    21   ar
    21    21    22   ar
    22    22    23   ar
    23    23    24   ar
    24    24    25   ar
    25     8     3   ar
    26    19     9   ar
    27    17    12   ar
    28    25    20   ar
    29     1    26    1
    30     1    27    1
    31     1    28    1
    32     2    29    1
    33     4    30    1
    34     5    31    1
    35     6    32    1
    36     7    33    1
    37     8    34    1
    38    13    35    1
    39    14    36    1
    40    15    37    1
    41    16    38    1
    42    17    39    1
    43    21    40    1
    44    22    41    1
    45    23    42    1
    46    24    43    1
    47    25    44    1
