@<TRIPOS>MOLECULE
*****
 41 47 0 0 0
SMALL
GASTEIGER

@<TRIPOS>ATOM
      1 SI          1.9296    0.0043   -2.0624 Si      1  UNL1        0.0000
      2 C           2.5597    0.8072   -0.4796 C.2     1  UNL1        0.0000
      3 C           1.6033    0.9492    0.4599 C.2     1  UNL1        0.0000
      4 C           0.2831    0.4419    0.0495 C.ar    1  UNL1        0.0000
      5 C          -0.8553    0.4741    0.8423 C.ar    1  UNL1        0.0000
      6 C          -2.0611   -0.0548    0.3233 C.ar    1  UNL1        0.0000
      7 C          -3.3046   -0.1033    0.9877 C.ar    1  UNL1        0.0000
      8 C          -3.5829    0.3527    2.2593 C.ar    1  UNL1        0.0000
      9 N          -4.9226    0.1121    2.5183 N.ar    1  UNL1        0.0000
     10 C          -5.5169   -0.4952    1.4316 C.ar    1  UNL1        0.0000
     11 C          -4.5180   -0.6169    0.5120 C.ar    1  UNL1        0.0000
     12 C          -4.5533   -1.1710   -0.8018 C.ar    1  UNL1        0.0000
     13 C          -5.6864   -1.7235   -1.4219 C.ar    1  UNL1        0.0000
     14 C          -5.3545   -2.1603   -2.6845 C.ar    1  UNL1        0.0000
     15 S          -3.7040   -1.8882   -3.0666 S.2     1  UNL1        0.0000
     16 C          -3.3642   -1.1589   -1.5213 C.ar    1  UNL1        0.0000
     17 C          -2.1253   -0.6183   -0.9974 C.ar    1  UNL1        0.0000
     18 C          -0.9509   -0.6347   -1.7799 C.ar    1  UNL1        0.0000
     19 C           0.2301   -0.1090   -1.2532 C.ar    1  UNL1        0.0000
     20 C           3.8999    1.2011   -0.3077 C.ar    1  UNL1        0.0000
     21 S           4.7284    2.3535   -1.3139 S.2     1  UNL1        0.0000
     22 C           6.2118    2.2463   -0.4136 C.ar    1  UNL1        0.0000
     23 C           6.0185    1.3604    0.5833 C.ar    1  UNL1        0.0000
     24 C           6.6971    0.7575    1.6702 C.ar    1  UNL1        0.0000
     25 C           5.7862   -0.1276    2.2861 C.ar    1  UNL1        0.0000
     26 N           4.5496   -0.1216    1.6436 N.ar    1  UNL1        0.0000
     27 C           4.7670    0.7892    0.6475 C.ar    1  UNL1        0.0000
     28 H           2.5158   -1.3408   -2.3001 H       1  UNL1        0.0000
     29 H           1.9258    0.9170   -3.2350 H       1  UNL1        0.0000
     30 H           1.7490    1.3979    1.4342 H       1  UNL1        0.0000
     31 H          -0.8204    0.8978    1.8400 H       1  UNL1        0.0000
     32 H          -2.9690    0.8270    3.0124 H       1  UNL1        0.0000
     33 H          -5.3954    0.3493    3.3810 H       1  UNL1        0.0000
     34 H          -6.5636   -0.7644    1.4385 H       1  UNL1        0.0000
     35 H          -6.6783   -1.8061   -0.9978 H       1  UNL1        0.0000
     36 H          -6.0014   -2.6304   -3.4123 H       1  UNL1        0.0000
     37 H          -0.9536   -1.0488   -2.7847 H       1  UNL1        0.0000
     38 H           7.0824    2.8253   -0.6842 H       1  UNL1        0.0000
     39 H           7.7183    0.9233    1.9865 H       1  UNL1        0.0000
     40 H           5.9264   -0.7731    3.1437 H       1  UNL1        0.0000
     41 H           3.7000   -0.6403    1.8314 H       1  UNL1        0.0000
@<TRIPOS>BOND
     1     1     2    1
     2     2     3    2
     3     3     4    1
     4     4     5   ar
     5     5     6   ar
     6     6     7   ar
     7     7     8   ar
     8     8     9   ar
     9     9    10   ar
    10    10    11   ar
    11    11    12   ar
    12    12    13   ar
    13    13    14   ar
    14    14    15   ar
    15    15    16   ar
    16    16    17   ar
    17    17    18   ar
    18    18    19   ar
    19     2    20    1
    20    20    21   ar
    21    21    22   ar
    22    22    23   ar
    23    23    24   ar
    24    24    25   ar
    25    25    26   ar
    26    26    27   ar
    27    19     1    1
    28    27    20   ar
    29    19     4   ar
    30    27    23   ar
    31    17     6   ar
    32    11     7   ar
    33    16    12   ar
    34     1    28    1
    35     1    29    1
    36     3    30    1
    37     5    31    1
    38     8    32    1
    39     9    33    1
    40    10    34    1
    41    13    35    1
    42    14    36    1
    43    18    37    1
    44    22    38    1
    45    24    39    1
    46    25    40    1
    47    26    41    1
