@<TRIPOS>MOLECULE
*****
 43 49 0 0 0
SMALL
GASTEIGER

@<TRIPOS>ATOM
      1 SI         -6.3820   -1.4435   -0.1928 Si      1  UNL1        0.0000
      2 C          -6.5917    0.4076   -0.0864 C.2     1  UNL1        0.0000
      3 C          -5.3955    1.0243   -0.0339 C.ar    1  UNL1        0.0000
      4 C          -5.2356    2.4671   -0.1142 C.ar    1  UNL1        0.0000
      5 C          -4.0048    2.9990   -0.2283 C.ar    1  UNL1        0.0000
      6 C          -2.8772    2.1176   -0.1772 C.ar    1  UNL1        0.0000
      7 S          -1.2937    2.6954   -0.4334 S.2     1  UNL1        0.0000
      8 C          -0.5700    1.1564   -0.0847 C.ar    1  UNL1        0.0000
      9 C          -1.5858    0.2683    0.2704 C.ar    1  UNL1        0.0000
     10 C          -1.1458   -0.9967    0.8179 C.ar    1  UNL1        0.0000
     11 C          -1.9147   -1.9018    1.4926 C.ar    1  UNL1        0.0000
     12 S          -0.9648   -3.2588    1.9495 S.2     1  UNL1        0.0000
     13 C           0.4719   -2.5406    1.3296 C.ar    1  UNL1        0.0000
     14 C           0.2444   -1.2934    0.7821 C.ar    1  UNL1        0.0000
     15 C           1.2907   -0.4674    0.3042 C.ar    1  UNL1        0.0000
     16 C           2.6730   -0.7644    0.2496 C.ar    1  UNL1        0.0000
     17 C           3.5698    0.2012   -0.2064 C.ar    1  UNL1        0.0000
     18 N           3.1415    1.4329   -0.5968 N.ar    1  UNL1        0.0000
     19 C           1.8119    1.7021   -0.5381 C.ar    1  UNL1        0.0000
     20 C           0.8306    0.8032   -0.1066 C.ar    1  UNL1        0.0000
     21 C           5.0296   -0.0548   -0.2857 C.ar    1  UNL1        0.0000
     22 C           5.9304    0.9113   -0.7405 C.ar    1  UNL1        0.0000
     23 C           7.2913    0.6150   -0.7936 C.ar    1  UNL1        0.0000
     24 C           7.7293   -0.6387   -0.3926 C.ar    1  UNL1        0.0000
     25 C           6.7839   -1.5474    0.0466 C.ar    1  UNL1        0.0000
     26 N           5.4586   -1.2876    0.1088 N.ar    1  UNL1        0.0000
     27 C          -2.9062    0.7393    0.0378 C.ar    1  UNL1        0.0000
     28 C          -4.2093    0.1162   -0.0021 C.ar    1  UNL1        0.0000
     29 C          -4.5297   -1.1812   -0.1761 C.2     1  UNL1        0.0000
     30 H          -6.8639   -1.9951   -1.4814 H       1  UNL1        0.0000
     31 H          -6.8599   -2.1387    1.0260 H       1  UNL1        0.0000
     32 H          -7.5646    0.8685   -0.1515 H       1  UNL1        0.0000
     33 H          -6.1180    3.0973   -0.1373 H       1  UNL1        0.0000
     34 H          -3.8656    4.0703   -0.3301 H       1  UNL1        0.0000
     35 H          -2.9536   -1.8665    1.7795 H       1  UNL1        0.0000
     36 H           1.4027   -3.0784    1.4431 H       1  UNL1        0.0000
     37 H           3.0470   -1.7335    0.5629 H       1  UNL1        0.0000
     38 H           1.5612    2.7054   -0.8726 H       1  UNL1        0.0000
     39 H           5.5776    1.8903   -1.0524 H       1  UNL1        0.0000
     40 H           7.9984    1.3604   -1.1459 H       1  UNL1        0.0000
     41 H           8.7806   -0.9014   -0.4215 H       1  UNL1        0.0000
     42 H           7.0751   -2.5423    0.3714 H       1  UNL1        0.0000
     43 H          -3.8670   -2.0168   -0.3235 H       1  UNL1        0.0000
@<TRIPOS>BOND
     1     1     2    1
     2     2     3    2
     3     3     4   ar
     4     4     5   ar
     5     5     6   ar
     6     6     7   ar
     7     7     8   ar
     8     8     9   ar
     9     9    10   ar
    10    10    11   ar
    11    11    12   ar
    12    12    13   ar
    13    13    14   ar
    14    14    15   ar
    15    15    16   ar
    16    16    17   ar
    17    17    18   ar
    18    18    19   ar
    19    19    20   ar
    20    17    21    1
    21    21    22   ar
    22    22    23   ar
    23    23    24   ar
    24    24    25   ar
    25    25    26   ar
    26     9    27   ar
    27    27    28   ar
    28    28    29    2
    29    29     1    1
    30    28     3   ar
    31    27     6   ar
    32    20     8   ar
    33    26    21   ar
    34    14    10   ar
    35    20    15   ar
    36     1    30    1
    37     1    31    1
    38     2    32    1
    39     4    33    1
    40     5    34    1
    41    11    35    1
    42    13    36    1
    43    16    37    1
    44    19    38    1
    45    22    39    1
    46    23    40    1
    47    24    41    1
    48    25    42    1
    49    29    43    1
