@<TRIPOS>MOLECULE
*****
 44 46 0 0 0
SMALL
GASTEIGER

@<TRIPOS>ATOM
      1 C          -4.0526   -1.7938    1.9289 C.3     1  UNL1       -0.0383
      2 C          -3.4550   -1.3211    0.5981 C.3     1  UNL1        0.0791
      3 C          -4.4605   -0.5464   -0.2346 C.ar    1  UNL1        0.0119
      4 C          -4.8940   -1.0485   -1.4744 C.ar    1  UNL1       -0.0538
      5 C          -5.8179   -0.3359   -2.2449 C.ar    1  UNL1       -0.0613
      6 C          -6.3215    0.8834   -1.7904 C.ar    1  UNL1       -0.0590
      7 C          -5.9009    1.3927   -0.5643 C.ar    1  UNL1       -0.0261
      8 C          -4.9807    0.6793    0.1998 C.ar    1  UNL1        0.1286
      9 F          -4.5993    1.1889    1.3787 F       1  UNL1       -0.2051
     10 N          -2.2024   -0.5773    0.7246 N.ar    1  UNL1       -0.2437
     11 C          -1.3188   -0.2739   -0.2731 C.ar    1  UNL1        0.0586
     12 C          -0.2905    0.3814    0.3708 C.ar    1  UNL1        0.1668
     13 C           0.9171    0.9374   -0.2170 C.2     1  UNL1        0.2657
     14 O           1.1931    0.8355   -1.4092 O.2     1  UNL1       -0.2684
     15 N           1.7296    1.5773    0.6952 N.am    1  UNL1       -0.3099
     16 C           2.9537    2.2494    0.3258 C.3     1  UNL1        0.0136
     17 C           4.1872    1.3780    0.5380 C.3     1  UNL1       -0.0193
     18 C           4.2557    0.2011   -0.4336 C.3     1  UNL1        0.0256
     19 N           5.4808   -0.5588   -0.2680 N.ar    1  UNL1       -0.3368
     20 C           6.6444   -0.3825   -0.9626 C.ar    1  UNL1        0.0240
     21 C           7.5031   -1.3306   -0.4556 C.ar    1  UNL1        0.0454
     22 N           6.8881   -2.0732    0.5196 N.ar    1  UNL1       -0.2441
     23 C           5.6687   -1.5907    0.6062 C.ar    1  UNL1        0.0959
     24 N          -0.5706    0.4350    1.7162 N.ar    1  UNL1       -0.1248
     25 N          -1.7330   -0.1677    1.9227 N.ar    1  UNL1       -0.0644
     26 H          -4.9646   -2.3774    1.7582 H       1  UNL1        0.0253
     27 H          -3.3419   -2.4323    2.4660 H       1  UNL1        0.0253
     28 H          -4.3118   -0.9584    2.5912 H       1  UNL1        0.0253
     29 H          -3.1690   -2.2293    0.0473 H       1  UNL1        0.0593
     30 H          -4.5155   -1.9954   -1.8553 H       1  UNL1        0.0622
     31 H          -6.1451   -0.7317   -3.2051 H       1  UNL1        0.0618
     32 H          -7.0397    1.4354   -2.3923 H       1  UNL1        0.0618
     33 H          -6.2849    2.3394   -0.1946 H       1  UNL1        0.0646
     34 H          -1.4868   -0.5231   -1.3111 H       1  UNL1        0.0850
     35 H           1.3925    1.6326    1.6529 H       1  UNL1        0.1490
     36 H           2.8927    2.5900   -0.7134 H       1  UNL1        0.0463
     37 H           3.0237    3.1368    0.9632 H       1  UNL1        0.0463
     38 H           4.2086    1.0106    1.5719 H       1  UNL1        0.0297
     39 H           5.0799    2.0033    0.4107 H       1  UNL1        0.0297
     40 H           4.2208    0.5463   -1.4732 H       1  UNL1        0.0492
     41 H           3.4252   -0.4965   -0.2815 H       1  UNL1        0.0492
     42 H           6.7655    0.3719   -1.7274 H       1  UNL1        0.0825
     43 H           8.5306   -1.5177   -0.7411 H       1  UNL1        0.0845
     44 H           4.8961   -1.9435    1.2774 H       1  UNL1        0.1029
@<TRIPOS>BOND
     1     1     2    1
     2     2     3    1
     3     3     4   ar
     4     4     5   ar
     5     5     6   ar
     6     6     7   ar
     7     7     8   ar
     8     8     9    1
     9     2    10    1
    10    10    11   ar
    11    11    12   ar
    12    12    13    1
    13    13    14    2
    14    13    15   am
    15    15    16    1
    16    16    17    1
    17    17    18    1
    18    18    19    1
    19    19    20   ar
    20    20    21   ar
    21    21    22   ar
    22    22    23   ar
    23    12    24   ar
    24    24    25   ar
    25     8     3   ar
    26    25    10   ar
    27    23    19   ar
    28     1    26    1
    29     1    27    1
    30     1    28    1
    31     2    29    1
    32     4    30    1
    33     5    31    1
    34     6    32    1
    35     7    33    1
    36    11    34    1
    37    15    35    1
    38    16    36    1
    39    16    37    1
    40    17    38    1
    41    17    39    1
    42    18    40    1
    43    18    41    1
    44    20    42    1
    45    21    43    1
    46    23    44    1
