@<TRIPOS>MOLECULE
*****
 46 47 0 0 0
SMALL
GASTEIGER

@<TRIPOS>ATOM
      1 C          -3.3708    2.2736    1.1166 C.3     1  UNL1       -0.0598
      2 C          -3.8435    0.8554    0.7610 C.3     1  UNL1       -0.0155
      3 C          -2.9873   -0.1936    1.4854 C.3     1  UNL1        0.0156
      4 N          -1.6157   -0.2472    1.0160 N.am    1  UNL1       -0.3110
      5 C          -0.5736    0.3316    1.7093 C.2     1  UNL1        0.2441
      6 O          -0.7059    0.9092    2.7817 O.2     1  UNL1       -0.2702
      7 C           0.7759    0.2004    1.0950 C.ar    1  UNL1        0.0367
      8 C           0.9584    0.1376   -0.2905 C.ar    1  UNL1       -0.0491
      9 C           2.2481    0.0184   -0.8215 C.ar    1  UNL1       -0.0533
     10 C           3.3776   -0.0309    0.0133 C.ar    1  UNL1       -0.0178
     11 C           4.7318   -0.1529   -0.5511 C.ar    1  UNL1       -0.0179
     12 C           5.7408    0.7659   -0.2169 C.ar    1  UNL1       -0.0540
     13 C           7.0264    0.6517   -0.7532 C.ar    1  UNL1       -0.0612
     14 C           7.3252   -0.3853   -1.6330 C.ar    1  UNL1       -0.0617
     15 C           6.3402   -1.3074   -1.9771 C.ar    1  UNL1       -0.0612
     16 C           5.0548   -1.1911   -1.4409 C.ar    1  UNL1       -0.0540
     17 C           3.1768    0.0509    1.4011 C.ar    1  UNL1       -0.0533
     18 C           1.8908    0.1702    1.9380 C.ar    1  UNL1       -0.0491
     19 C          -3.8960    0.7096   -0.7800 C.3     1  UNL1        0.0023
     20 N          -4.5129   -0.4751   -1.3885 N.3     1  UNL1       -0.3080
     21 C          -5.8038   -0.8356   -0.8185 C.3     1  UNL1       -0.0130
     22 C          -3.6351   -1.6247   -1.5325 C.3     1  UNL1       -0.0130
     23 H          -4.0623    3.0223    0.7151 H       1  UNL1        0.0233
     24 H          -3.3304    2.4118    2.2022 H       1  UNL1        0.0233
     25 H          -2.3777    2.4842    0.7064 H       1  UNL1        0.0233
     26 H          -4.8642    0.7685    1.1551 H       1  UNL1        0.0326
     27 H          -3.4116   -1.1932    1.3601 H       1  UNL1        0.0465
     28 H          -2.9938    0.0069    2.5633 H       1  UNL1        0.0465
     29 H          -1.4179   -0.8142    0.2043 H       1  UNL1        0.1490
     30 H           0.1175    0.2134   -0.9735 H       1  UNL1        0.0625
     31 H           2.3710   -0.0126   -1.9031 H       1  UNL1        0.0624
     32 H           5.5266    1.5907    0.4600 H       1  UNL1        0.0624
     33 H           7.7918    1.3750   -0.4843 H       1  UNL1        0.0618
     34 H           8.3250   -0.4748   -2.0496 H       1  UNL1        0.0618
     35 H           6.5712   -2.1200   -2.6609 H       1  UNL1        0.0618
     36 H           4.3042   -1.9298   -1.7146 H       1  UNL1        0.0624
     37 H           4.0268    0.0145    2.0802 H       1  UNL1        0.0624
     38 H           1.7619    0.2356    3.0168 H       1  UNL1        0.0625
     39 H          -2.8910    0.8518   -1.1996 H       1  UNL1        0.0429
     40 H          -4.4673    1.5667   -1.1638 H       1  UNL1        0.0429
     41 H          -6.3011   -1.5865   -1.4427 H       1  UNL1        0.0391
     42 H          -5.7136   -1.2454    0.1931 H       1  UNL1        0.0391
     43 H          -6.4711    0.0327   -0.7851 H       1  UNL1        0.0391
     44 H          -2.6841   -1.3380   -1.9948 H       1  UNL1        0.0391
     45 H          -3.4222   -2.1249   -0.5849 H       1  UNL1        0.0391
     46 H          -4.0899   -2.3651   -2.2006 H       1  UNL1        0.0391
@<TRIPOS>BOND
     1     1     2    1
     2     2     3    1
     3     3     4    1
     4     4     5   am
     5     5     6    2
     6     5     7    1
     7     7     8   ar
     8     8     9   ar
     9     9    10   ar
    10    10    11    1
    11    11    12   ar
    12    12    13   ar
    13    13    14   ar
    14    14    15   ar
    15    15    16   ar
    16    10    17   ar
    17    17    18   ar
    18     2    19    1
    19    19    20    1
    20    20    21    1
    21    20    22    1
    22    18     7   ar
    23    16    11   ar
    24     1    23    1
    25     1    24    1
    26     1    25    1
    27     2    26    1
    28     3    27    1
    29     3    28    1
    30     4    29    1
    31     8    30    1
    32     9    31    1
    33    12    32    1
    34    13    33    1
    35    14    34    1
    36    15    35    1
    37    16    36    1
    38    17    37    1
    39    18    38    1
    40    19    39    1
    41    19    40    1
    42    21    41    1
    43    21    42    1
    44    21    43    1
    45    22    44    1
    46    22    45    1
    47    22    46    1
