@<TRIPOS>MOLECULE
*****
 35 37 0 0 0
SMALL
GASTEIGER

@<TRIPOS>ATOM
      1 C          -3.8993   -0.4146    0.7830 C.3     1  UNL1       -0.0443
      2 C          -3.3056    0.2048   -0.4813 C.3     1  UNL1        0.0470
      3 C          -3.7944    1.6529   -0.7058 C.3     1  UNL1        0.0625
      4 O          -3.7722    2.4470    0.4745 O.3     1  UNL1       -0.3932
      5 N          -1.8450    0.0834   -0.4838 N.am    1  UNL1       -0.2869
      6 C          -1.1805   -1.0547   -1.1678 C.3     1  UNL1        0.0429
      7 C           0.2172   -0.8313   -0.7466 C.ar    1  UNL1        0.0037
      8 C           0.2950    0.2457    0.0921 C.ar    1  UNL1        0.1140
      9 N           1.5739    0.4437    0.4857 N.ar    1  UNL1       -0.3115
     10 C           2.1139    1.4077    1.3300 C.ar    1  UNL1        0.0117
     11 C           3.4355    1.4045    1.5746 C.ar    1  UNL1       -0.0277
     12 C           4.2793    0.3871    0.9475 C.ar    1  UNL1        0.0551
     13 C           3.7461   -0.5467    0.1280 C.ar    1  UNL1       -0.0201
     14 C           2.3411   -0.5523   -0.1382 C.ar    1  UNL1        0.0512
     15 C           1.5095   -1.3620   -0.9145 C.ar    1  UNL1       -0.0198
     16 C           1.9040   -2.5327   -1.7375 C.3     1  UNL1       -0.0374
     17 C           5.6810    0.3954    1.2153 C.1     1  UNL1        0.0993
     18 N           6.8211    0.4006    1.4319 N.1     1  UNL1       -0.1909
     19 C          -0.9750    0.8392    0.3128 C.2     1  UNL1        0.2643
     20 O          -1.2538    1.7877    1.0272 O.2     1  UNL1       -0.2683
     21 H          -3.6195   -1.4708    0.8630 H       1  UNL1        0.0248
     22 H          -4.9924   -0.3560    0.7683 H       1  UNL1        0.0248
     23 H          -3.5409    0.0851    1.6891 H       1  UNL1        0.0248
     24 H          -3.6497   -0.3751   -1.3474 H       1  UNL1        0.0520
     25 H          -3.2008    2.1560   -1.4768 H       1  UNL1        0.0575
     26 H          -4.8345    1.6330   -1.0483 H       1  UNL1        0.0575
     27 H          -2.8534    2.4201    0.8216 H       1  UNL1        0.2095
     28 H          -1.5870   -1.9944   -0.7850 H       1  UNL1        0.0515
     29 H          -1.3264   -0.9591   -2.2464 H       1  UNL1        0.0515
     30 H           1.4317    2.1317    1.7611 H       1  UNL1        0.0813
     31 H           3.8877    2.1436    2.2293 H       1  UNL1        0.0645
     32 H           4.3684   -1.3050   -0.3403 H       1  UNL1        0.0651
     33 H           1.0377   -2.9745   -2.2402 H       1  UNL1        0.0278
     34 H           2.6254   -2.2354   -2.5053 H       1  UNL1        0.0278
     35 H           2.3617   -3.3046   -1.1108 H       1  UNL1        0.0278
@<TRIPOS>BOND
     1     1     2    1
     2     2     3    1
     3     3     4    1
     4     2     5    1
     5     5     6    1
     6     6     7    1
     7     7     8   ar
     8     8     9   ar
     9     9    10   ar
    10    10    11   ar
    11    11    12   ar
    12    12    13   ar
    13    13    14   ar
    14    14    15   ar
    15    15    16    1
    16    12    17    1
    17    17    18    3
    18     8    19    1
    19    19    20    2
    20    19     5   am
    21    15     7   ar
    22    14     9   ar
    23     1    21    1
    24     1    22    1
    25     1    23    1
    26     2    24    1
    27     3    25    1
    28     3    26    1
    29     4    27    1
    30     6    28    1
    31     6    29    1
    32    10    30    1
    33    11    31    1
    34    13    32    1
    35    16    33    1
    36    16    34    1
    37    16    35    1
