@<TRIPOS>MOLECULE
*****
 39 41 0 0 0
SMALL
GASTEIGER

@<TRIPOS>ATOM
      1 C          -4.2866   -1.6269   -0.8105 C.3     1  UNL1       -0.0443
      2 C          -4.0024   -0.4888    0.1683 C.3     1  UNL1        0.0470
      3 C          -4.7862    0.7944   -0.1860 C.3     1  UNL1        0.0625
      4 O          -4.7570    1.1104   -1.5727 O.3     1  UNL1       -0.3932
      5 N          -2.5602   -0.2642    0.3010 N.am    1  UNL1       -0.2869
      6 C          -1.7898   -0.9104    1.3929 C.3     1  UNL1        0.0429
      7 C          -0.4169   -0.5333    1.0017 C.ar    1  UNL1        0.0037
      8 C          -0.4327    0.1740   -0.1683 C.ar    1  UNL1        0.1140
      9 N           0.8265    0.5107   -0.5312 N.ar    1  UNL1       -0.3116
     10 C           1.2818    1.2184   -1.6357 C.ar    1  UNL1        0.0112
     11 C           2.5996    1.4320   -1.7819 C.ar    1  UNL1       -0.0347
     12 C           3.5370    0.9176   -0.7779 C.ar    1  UNL1        0.0204
     13 C           3.0799    0.2300    0.2942 C.ar    1  UNL1       -0.0271
     14 C           1.6772   -0.0036    0.4586 C.ar    1  UNL1        0.0507
     15 C           0.9176   -0.6621    1.4283 C.ar    1  UNL1       -0.0198
     16 C           1.4115   -1.3520    2.6461 C.3     1  UNL1       -0.0374
     17 C           5.0096    1.1740   -0.9735 C.2     1  UNL1        0.1602
     18 C           6.0013    0.5875    0.0002 C.3     1  UNL1       -0.0014
     19 O           5.4005    1.8571   -1.9219 O.2     1  UNL1       -0.2924
     20 C          -1.7505    0.3467   -0.6660 C.2     1  UNL1        0.2643
     21 O          -2.1078    0.8974   -1.6940 O.2     1  UNL1       -0.2683
     22 H          -5.3621   -1.8185   -0.8825 H       1  UNL1        0.0248
     23 H          -3.8011   -2.5513   -0.4788 H       1  UNL1        0.0248
     24 H          -3.9095   -1.4052   -1.8145 H       1  UNL1        0.0248
     25 H          -4.3446   -0.7941    1.1656 H       1  UNL1        0.0520
     26 H          -4.4109    1.6558    0.3770 H       1  UNL1        0.0575
     27 H          -5.8398    0.6577    0.0801 H       1  UNL1        0.0575
     28 H          -3.8114    1.1773   -1.8320 H       1  UNL1        0.2095
     29 H          -1.9516   -1.9910    1.3598 H       1  UNL1        0.0515
     30 H          -2.0981   -0.4834    2.3502 H       1  UNL1        0.0515
     31 H           0.5421    1.5737   -2.3435 H       1  UNL1        0.0813
     32 H           2.9905    1.9821   -2.6330 H       1  UNL1        0.0639
     33 H           3.7402   -0.1634    1.0585 H       1  UNL1        0.0645
     34 H           1.9463   -0.6498    3.2937 H       1  UNL1        0.0278
     35 H           2.0939   -2.1642    2.3760 H       1  UNL1        0.0278
     36 H           0.5855   -1.7814    3.2219 H       1  UNL1        0.0278
     37 H           5.9063   -0.5011    0.0291 H       1  UNL1        0.0309
     38 H           7.0166    0.8278   -0.3309 H       1  UNL1        0.0309
     39 H           5.8554    1.0198    0.9934 H       1  UNL1        0.0309
@<TRIPOS>BOND
     1     1     2    1
     2     2     3    1
     3     3     4    1
     4     2     5    1
     5     5     6    1
     6     6     7    1
     7     7     8   ar
     8     8     9   ar
     9     9    10   ar
    10    10    11   ar
    11    11    12   ar
    12    12    13   ar
    13    13    14   ar
    14    14    15   ar
    15    15    16    1
    16    12    17    1
    17    17    18    1
    18    17    19    2
    19     8    20    1
    20    20    21    2
    21    20     5   am
    22    15     7   ar
    23    14     9   ar
    24     1    22    1
    25     1    23    1
    26     1    24    1
    27     2    25    1
    28     3    26    1
    29     3    27    1
    30     4    28    1
    31     6    29    1
    32     6    30    1
    33    10    31    1
    34    11    32    1
    35    13    33    1
    36    16    34    1
    37    16    35    1
    38    16    36    1
    39    18    37    1
    40    18    38    1
    41    18    39    1
