@<TRIPOS>MOLECULE
*****
 34 36 0 0 0
SMALL
GASTEIGER

@<TRIPOS>ATOM
      1 C          -3.5249    1.4127    1.2433 C.3     1  UNL1       -0.0443
      2 C          -3.0602    0.4341    0.1651 C.3     1  UNL1        0.0470
      3 C          -3.6199   -0.9772    0.4221 C.3     1  UNL1        0.0625
      4 O          -3.4537   -1.8044   -0.7318 O.3     1  UNL1       -0.3932
      5 N          -1.6042    0.4264    0.0290 N.am    1  UNL1       -0.2869
      6 C          -0.9631    0.4204   -1.3083 C.3     1  UNL1        0.0429
      7 C           0.4462    0.2100   -0.9225 C.ar    1  UNL1        0.0037
      8 C           0.5473    0.0380    0.4303 C.ar    1  UNL1        0.1140
      9 N           1.8370   -0.1731    0.7821 N.ar    1  UNL1       -0.3116
     10 C           2.3988   -0.4004    2.0348 C.ar    1  UNL1        0.0105
     11 C           3.7256   -0.5815    2.1379 C.ar    1  UNL1       -0.0451
     12 C           4.5379   -0.5339    0.9326 C.ar    1  UNL1       -0.0584
     13 C           3.9961   -0.3144   -0.2815 C.ar    1  UNL1       -0.0375
     14 C           2.5866   -0.1209   -0.4045 C.ar    1  UNL1        0.0500
     15 C           1.7332    0.1161   -1.4838 C.ar    1  UNL1       -0.0198
     16 C           2.1048    0.2365   -2.9149 C.3     1  UNL1       -0.0374
     17 C          -0.7166    0.1195    1.0731 C.2     1  UNL1        0.2643
     18 O          -0.9736   -0.0451    2.2535 O.2     1  UNL1       -0.2683
     19 H          -3.2466    1.0814    2.2484 H       1  UNL1        0.0248
     20 H          -3.0871    2.4040    1.0836 H       1  UNL1        0.0248
     21 H          -4.6149    1.5180    1.2213 H       1  UNL1        0.0248
     22 H          -3.4501    0.7955   -0.7952 H       1  UNL1        0.0520
     23 H          -4.6906   -0.9402    0.6499 H       1  UNL1        0.0575
     24 H          -3.1143   -1.4670    1.2599 H       1  UNL1        0.0575
     25 H          -4.0658   -1.4810   -1.4138 H       1  UNL1        0.2095
     26 H          -1.1391    1.3834   -1.7934 H       1  UNL1        0.0515
     27 H          -1.3585   -0.4084   -1.9006 H       1  UNL1        0.0515
     28 H           1.7272   -0.4222    2.8846 H       1  UNL1        0.0813
     29 H           4.2061   -0.7624    3.0926 H       1  UNL1        0.0632
     30 H           5.6077   -0.6835    1.0412 H       1  UNL1        0.0619
     31 H           4.6195   -0.2838   -1.1690 H       1  UNL1        0.0638
     32 H           2.5754   -0.6868   -3.2675 H       1  UNL1        0.0278
     33 H           2.8084    1.0624   -3.0601 H       1  UNL1        0.0278
     34 H           1.2257    0.4276   -3.5387 H       1  UNL1        0.0278
@<TRIPOS>BOND
     1     1     2    1
     2     2     3    1
     3     3     4    1
     4     2     5    1
     5     5     6    1
     6     6     7    1
     7     7     8   ar
     8     8     9   ar
     9     9    10   ar
    10    10    11   ar
    11    11    12   ar
    12    12    13   ar
    13    13    14   ar
    14    14    15   ar
    15    15    16    1
    16     8    17    1
    17    17    18    2
    18    17     5   am
    19    15     7   ar
    20    14     9   ar
    21     1    19    1
    22     1    20    1
    23     1    21    1
    24     2    22    1
    25     3    23    1
    26     3    24    1
    27     4    25    1
    28     6    26    1
    29     6    27    1
    30    10    28    1
    31    11    29    1
    32    12    30    1
    33    13    31    1
    34    16    32    1
    35    16    33    1
    36    16    34    1
