@<TRIPOS>MOLECULE
*****
 25 25 0 0 0
SMALL
GASTEIGER

@<TRIPOS>ATOM
      1 CB          3.1035    1.4621   -0.1368 C.3     1  ALA1       -0.0362
      2 CA          2.3365    0.1543   -0.2526 C.3     1  ALA1        0.1176
      3 N           0.8957    0.3999   -0.1873 N.am    1  ALA1       -0.2985
      4 C           0.0240   -0.4499   -0.8394 C.2     0  UNK0        0.2461
      5 O           0.3673   -1.2833   -1.6656 O.2     0  UNK0       -0.2701
      6 C          -1.3997   -0.2791   -0.4755 C.ar    0  UNK0        0.0550
      7 C          -1.9663    0.9999   -0.5963 C.ar    0  UNK0       -0.0482
      8 C          -3.3103    1.2023   -0.2809 C.ar    0  UNK0       -0.0610
      9 C          -4.0908    0.1324    0.1539 C.ar    0  UNK0       -0.0603
     10 C          -3.5289   -1.1408    0.2753 C.ar    0  UNK0       -0.0427
     11 C          -2.1821   -1.3533   -0.0394 C.ar    0  UNK0        0.0531
     12 CL         -1.5495   -2.9429    0.1931 Cl      0  UNK0       -0.0828
     13 C           2.7219   -0.7692    0.9013 C.2     1  ALA1        0.3250
     14 O           2.1304   -0.8801    1.9659 O.2     1  ALA1       -0.2489
     15 OXT         3.8599   -1.4557    0.6759 O.3     1  ALA1       -0.4793
     16 HB1         2.8275    2.1477   -0.9450 H       1  ALA1        0.0253
     17 HB2         4.1838    1.2896   -0.1873 H       1  ALA1        0.0253
     18 HB3         2.8926    1.9655    0.8137 H       1  ALA1        0.0253
     19 HA          2.5729   -0.3470   -1.1974 H       1  ALA1        0.0611
     20 H           0.5562    0.8192    0.6717 H       1  ALA1        0.1498
     21 H          -1.3686    1.8348   -0.9559 H       0  UNK0        0.0625
     22 H          -3.7511    2.1916   -0.3820 H       0  UNK0        0.0618
     23 H          -5.1395    0.2874    0.3982 H       0  UNK0        0.0618
     24 H          -4.1472   -1.9663    0.6211 H       0  UNK0        0.0632
     25 HXT         3.9621   -2.0191    1.4714 H       1  ALA1        0.2951
@<TRIPOS>BOND
     1     1     2    1
     2     2     3    1
     3     3     4   am
     4     4     5    2
     5     4     6    1
     6     6     7   ar
     7     7     8   ar
     8     8     9   ar
     9     9    10   ar
    10    10    11   ar
    11    11    12    1
    12     2    13    1
    13    13    14    2
    14    13    15    1
    15    11     6   ar
    16     1    16    1
    17     1    17    1
    18     1    18    1
    19     2    19    1
    20     3    20    1
    21     7    21    1
    22     8    22    1
    23     9    23    1
    24    10    24    1
    25    15    25    1
