@<TRIPOS>MOLECULE
*****
 33 33 0 0 0
SMALL
GASTEIGER

@<TRIPOS>ATOM
      1 C          -1.4150   -1.8335    0.7973 C.3     1  UNL1       -0.0461
      2 C          -1.1447   -0.7560   -0.2596 C.3     1  UNL1        0.0255
      3 N           0.2079   -0.2288   -0.0680 N.am    1  UNL1       -0.3083
      4 C           1.3152   -0.8779   -0.5778 C.2     1  UNL1        0.2444
      5 O           1.2570   -1.8856   -1.2721 O.2     1  UNL1       -0.2702
      6 C           2.6377   -0.3079   -0.2099 C.ar    1  UNL1        0.0396
      7 C           3.7392   -1.1628   -0.1715 C.ar    1  UNL1       -0.0315
      8 C           4.9660   -0.6258    0.1690 C.ar    1  UNL1        0.0283
      9 N           5.1564    0.6795    0.4591 N.ar    1  UNL1       -0.2632
     10 C           4.0775    1.4881    0.3914 C.ar    1  UNL1        0.0283
     11 C           2.8069    1.0497    0.0636 C.ar    1  UNL1       -0.0315
     12 C          -2.2096    0.3921   -0.3060 C.3     1  UNL1       -0.0196
     13 C          -3.5963   -0.1811   -0.6662 C.3     1  UNL1       -0.0584
     14 C          -2.3304    1.1422    1.0340 C.3     1  UNL1       -0.0584
     15 C          -1.8276    1.4098   -1.4038 C.3     1  UNL1       -0.0584
     16 H          -2.3938   -2.3010    0.6617 H       1  UNL1        0.0248
     17 H          -1.3594   -1.4271    1.8122 H       1  UNL1        0.0248
     18 H          -0.6662   -2.6315    0.7348 H       1  UNL1        0.0248
     19 H          -1.1558   -1.2583   -1.2365 H       1  UNL1        0.0501
     20 H           0.3496    0.4111    0.7008 H       1  UNL1        0.1493
     21 H           3.6419   -2.2192   -0.4000 H       1  UNL1        0.0640
     22 H           5.8558   -1.2473    0.2180 H       1  UNL1        0.0830
     23 H           4.2717    2.5349    0.6088 H       1  UNL1        0.0830
     24 H           1.9918    1.7600   -0.0017 H       1  UNL1        0.0640
     25 H          -4.3285    0.6212   -0.8152 H       1  UNL1        0.0235
     26 H          -3.5540   -0.7657   -1.5919 H       1  UNL1        0.0235
     27 H          -3.9887   -0.8274    0.1254 H       1  UNL1        0.0235
     28 H          -2.6591    0.4797    1.8411 H       1  UNL1        0.0235
     29 H          -3.0666    1.9517    0.9628 H       1  UNL1        0.0235
     30 H          -1.3805    1.5959    1.3341 H       1  UNL1        0.0235
     31 H          -0.8858    1.9201   -1.1744 H       1  UNL1        0.0235
     32 H          -2.5963    2.1839   -1.5109 H       1  UNL1        0.0235
     33 H          -1.7161    0.9171   -2.3762 H       1  UNL1        0.0235
@<TRIPOS>BOND
     1     1     2    1
     2     2     3    1
     3     3     4   am
     4     4     5    2
     5     4     6    1
     6     6     7   ar
     7     7     8   ar
     8     8     9   ar
     9     9    10   ar
    10    10    11   ar
    11     2    12    1
    12    12    13    1
    13    12    14    1
    14    12    15    1
    15    11     6   ar
    16     1    16    1
    17     1    17    1
    18     1    18    1
    19     2    19    1
    20     3    20    1
    21     7    21    1
    22     8    22    1
    23    10    23    1
    24    11    24    1
    25    13    25    1
    26    13    26    1
    27    13    27    1
    28    14    28    1
    29    14    29    1
    30    14    30    1
    31    15    31    1
    32    15    32    1
    33    15    33    1
