@<TRIPOS>MOLECULE
*****
 44 46 0 0 0
SMALL
GASTEIGER

@<TRIPOS>ATOM
      1 C          -3.5468    2.6454    0.6561 C.3     1  UNL1       -0.0425
      2 C          -3.5048    1.2420    0.0433 C.3     1  UNL1        0.0455
      3 N          -2.1984    0.6286    0.2178 N.am    1  UNL1       -0.3087
      4 C          -1.1140    0.9816   -0.5517 C.2     1  UNL1        0.2136
      5 O          -1.1624    1.8166   -1.4467 O.2     1  UNL1       -0.2758
      6 C           0.1408    0.2113   -0.1860 C.3     1  UNL1        0.0274
      7 C           1.3576    0.6860   -0.9768 C.3     1  UNL1       -0.0043
      8 C           2.6621    0.0026   -0.5542 C.3     1  UNL1        0.1346
      9 C           2.7005   -1.4837   -0.9124 C.3     1  UNL1        0.1265
     10 O           3.9056   -2.0907   -0.4271 O.3     1  UNL1       -0.4846
     11 C           5.0040   -1.3250   -0.7204 C.ar    1  UNL1        0.1621
     12 C           6.2490   -1.9389   -0.5959 C.ar    1  UNL1       -0.0163
     13 C           7.4096   -1.2254   -0.9004 C.ar    1  UNL1       -0.0581
     14 C           7.3231    0.1012   -1.3264 C.ar    1  UNL1       -0.0581
     15 C           6.0768    0.7198   -1.4379 C.ar    1  UNL1       -0.0163
     16 C           4.9195    0.0115   -1.1202 C.ar    1  UNL1        0.1625
     17 O           3.7323    0.6871   -1.2317 O.3     1  UNL1       -0.4818
     18 C          -4.5701    0.3166    0.6053 C.ar    1  UNL1       -0.0275
     19 C          -5.3237   -0.4819   -0.2705 C.ar    1  UNL1       -0.0568
     20 C          -6.2916   -1.3615    0.2181 C.ar    1  UNL1       -0.0614
     21 C          -6.5142   -1.4623    1.5891 C.ar    1  UNL1       -0.0617
     22 C          -5.7666   -0.6874    2.4726 C.ar    1  UNL1       -0.0614
     23 C          -4.7976    0.1928    1.9857 C.ar    1  UNL1       -0.0568
     24 H          -4.5489    3.0803    0.5745 H       1  UNL1        0.0251
     25 H          -3.2618    2.6409    1.7138 H       1  UNL1        0.0251
     26 H          -2.8484    3.3153    0.1428 H       1  UNL1        0.0251
     27 H          -3.6722    1.3611   -1.0353 H       1  UNL1        0.0545
     28 H          -2.0925   -0.0601    0.9506 H       1  UNL1        0.1493
     29 H           0.3226    0.3394    0.8875 H       1  UNL1        0.0359
     30 H          -0.0549   -0.8486   -0.3799 H       1  UNL1        0.0359
     31 H           1.1929    0.5372   -2.0522 H       1  UNL1        0.0306
     32 H           1.4728    1.7715   -0.8540 H       1  UNL1        0.0306
     33 H           2.8142    0.1414    0.5252 H       1  UNL1        0.0767
     34 H           1.8704   -2.0250   -0.4499 H       1  UNL1        0.0734
     35 H           2.6454   -1.6414   -1.9973 H       1  UNL1        0.0734
     36 H           6.3142   -2.9741   -0.2736 H       1  UNL1        0.0655
     37 H           8.3806   -1.7054   -0.8103 H       1  UNL1        0.0619
     38 H           8.2266    0.6550   -1.5684 H       1  UNL1        0.0619
     39 H           6.0079    1.7544   -1.7620 H       1  UNL1        0.0655
     40 H          -5.1598   -0.4233   -1.3451 H       1  UNL1        0.0621
     41 H          -6.8708   -1.9689   -0.4728 H       1  UNL1        0.0618
     42 H          -7.2687   -2.1463    1.9688 H       1  UNL1        0.0618
     43 H          -5.9377   -0.7687    3.5431 H       1  UNL1        0.0618
     44 H          -4.2225    0.7791    2.6983 H       1  UNL1        0.0621
@<TRIPOS>BOND
     1     1     2    1
     2     2     3    1
     3     3     4   am
     4     4     5    2
     5     4     6    1
     6     6     7    1
     7     7     8    1
     8     8     9    1
     9     9    10    1
    10    10    11    1
    11    11    12   ar
    12    12    13   ar
    13    13    14   ar
    14    14    15   ar
    15    15    16   ar
    16    16    17    1
    17     2    18    1
    18    18    19   ar
    19    19    20   ar
    20    20    21   ar
    21    21    22   ar
    22    22    23   ar
    23    17     8    1
    24    23    18   ar
    25    16    11   ar
    26     1    24    1
    27     1    25    1
    28     1    26    1
    29     2    27    1
    30     3    28    1
    31     6    29    1
    32     6    30    1
    33     7    31    1
    34     7    32    1
    35     8    33    1
    36     9    34    1
    37     9    35    1
    38    12    36    1
    39    13    37    1
    40    14    38    1
    41    15    39    1
    42    19    40    1
    43    20    41    1
    44    21    42    1
    45    22    43    1
    46    23    44    1
