@<TRIPOS>MOLECULE
*****
 29 29 0 0 0
SMALL
GASTEIGER

@<TRIPOS>ATOM
      1 C          -2.3565    1.9106   -0.3694 C.3     1  UNL1       -0.0265
      2 C          -2.4327    0.4535    0.1177 C.3     1  UNL1        0.2231
      3 N          -1.0898    0.0284    0.6752 N.am    1  UNL1       -0.2784
      4 C           0.0482   -0.0622   -0.0898 C.2     1  UNL1        0.3048
      5 O           0.0550    0.2068   -1.2793 O.2     1  UNL1       -0.2525
      6 N           1.1145   -0.4855    0.6677 N.am    1  UNL1       -0.2681
      7 C           2.4569   -0.6135    0.2507 C.ar    1  UNL1        0.0529
      8 C           2.9461   -0.1732   -0.9763 C.ar    1  UNL1       -0.0375
      9 C           4.2969   -0.3403   -1.2850 C.ar    1  UNL1       -0.0418
     10 C           5.1219   -0.9411   -0.3493 C.ar    1  UNL1        0.0277
     11 N           4.6926   -1.3756    0.8533 N.ar    1  UNL1       -0.2614
     12 C           3.3759   -1.2017    1.1205 C.ar    1  UNL1        0.0488
     13 C          -2.9885   -0.4539   -0.9867 C.3     1  UNL1        0.4189
     14 F          -3.0066   -1.7519   -0.6035 F       1  UNL1       -0.1680
     15 F          -2.2816   -0.3905   -2.1342 F       1  UNL1       -0.1680
     16 F          -4.2592   -0.1203   -1.3162 F       1  UNL1       -0.1680
     17 C          -3.4835    0.3649    1.2267 C.3     1  UNL1        0.4189
     18 F          -3.6540   -0.8951    1.6811 F       1  UNL1       -0.1680
     19 F          -4.6893    0.8504    0.8735 F       1  UNL1       -0.1680
     20 F          -3.0674    1.0975    2.2977 F       1  UNL1       -0.1680
     21 H          -1.6820    2.0212   -1.2241 H       1  UNL1        0.0256
     22 H          -1.9885    2.5710    0.4241 H       1  UNL1        0.0256
     23 H          -3.3390    2.2798   -0.6842 H       1  UNL1        0.0256
     24 H          -0.9292    0.2671    1.6466 H       1  UNL1        0.1514
     25 H           0.8856   -0.8849    1.5665 H       1  UNL1        0.1564
     26 H           2.3072    0.3040   -1.7125 H       1  UNL1        0.0637
     27 H           4.6925   -0.0066   -2.2382 H       1  UNL1        0.0633
     28 H           6.1791   -1.0914   -0.5487 H       1  UNL1        0.0829
     29 H           3.0753   -1.5675    2.0981 H       1  UNL1        0.0848
@<TRIPOS>BOND
     1     1     2    1
     2     2     3    1
     3     3     4   am
     4     4     5    2
     5     4     6   am
     6     6     7    1
     7     7     8   ar
     8     8     9   ar
     9     9    10   ar
    10    10    11   ar
    11    11    12   ar
    12     2    13    1
    13    13    14    1
    14    13    15    1
    15    13    16    1
    16     2    17    1
    17    17    18    1
    18    17    19    1
    19    17    20    1
    20    12     7   ar
    21     1    21    1
    22     1    22    1
    23     1    23    1
    24     3    24    1
    25     6    25    1
    26     8    26    1
    27     9    27    1
    28    10    28    1
    29    12    29    1
