@<TRIPOS>MOLECULE
*****
 26 26 0 0 0
SMALL
GASTEIGER

@<TRIPOS>ATOM
      1 C           0.8964    1.0593    1.6732 C.3     1  UNL1       -0.0251
      2 C           1.1651    0.2282    0.4263 C.2     1  UNL1        0.0276
      3 N           0.1573   -0.6626    0.0518 N.pl3   1  UNL1       -0.3169
      4 C          -1.2380   -0.4562   -0.0077 C.ar    1  UNL1        0.0312
      5 C          -2.0628   -1.5873   -0.1208 C.ar    1  UNL1       -0.0392
      6 C          -3.4554   -1.4685   -0.1564 C.ar    1  UNL1       -0.0416
      7 C          -4.0398   -0.2093   -0.0763 C.ar    1  UNL1        0.0411
      8 CL         -5.7521   -0.0538   -0.1201 Cl      1  UNL1       -0.0835
      9 C          -3.2429    0.9259    0.0369 C.ar    1  UNL1       -0.0416
     10 C          -1.8491    0.7999    0.0734 C.ar    1  UNL1       -0.0392
     11 C           2.3808    0.2938   -0.1822 C.2     1  UNL1        0.1297
     12 C           3.3833    1.2079    0.2482 C.1     1  UNL1        0.1059
     13 N           4.2195    1.9471    0.5674 N.1     1  UNL1       -0.1907
     14 C           2.6898   -0.5933   -1.3524 C.2     1  UNL1        0.2533
     15 N           3.8758   -0.4024   -1.9968 N.am    1  UNL1       -0.3247
     16 O           1.9273   -1.4756   -1.7413 O.2     1  UNL1       -0.2696
     17 H           0.5974    2.0771    1.4047 H       1  UNL1        0.0290
     18 H           1.7772    1.1178    2.3219 H       1  UNL1        0.0290
     19 H           0.1080    0.6132    2.2897 H       1  UNL1        0.0290
     20 H           0.4539   -1.3275   -0.6780 H       1  UNL1        0.1519
     21 H          -1.6177   -2.5789   -0.1719 H       1  UNL1        0.0636
     22 H          -4.0704   -2.3599   -0.2425 H       1  UNL1        0.0633
     23 H          -3.6949    1.9124    0.0926 H       1  UNL1        0.0633
     24 H          -1.2563    1.7063    0.1331 H       1  UNL1        0.0636
     25 H           4.5720    0.2930   -1.7579 H       1  UNL1        0.1453
     26 H           4.0754   -1.0068   -2.7848 H       1  UNL1        0.1453
@<TRIPOS>BOND
     1     1     2    1
     2     2     3    1
     3     3     4    1
     4     4     5   ar
     5     5     6   ar
     6     6     7   ar
     7     7     8    1
     8     7     9   ar
     9     9    10   ar
    10     2    11    2
    11    11    12    1
    12    12    13    3
    13    11    14    1
    14    14    15   am
    15    14    16    2
    16    10     4   ar
    17     1    17    1
    18     1    18    1
    19     1    19    1
    20     3    20    1
    21     5    21    1
    22     6    22    1
    23     9    23    1
    24    10    24    1
    25    15    25    1
    26    15    26    1
