@<TRIPOS>MOLECULE
*****
 40 46 0 0 0
SMALL
GASTEIGER

@<TRIPOS>ATOM
      1 SI         -6.9943   -0.3143    0.0661 Si      1  UNL1        0.0000
      2 C          -6.5569    0.9647    1.3651 C.2     1  UNL1        0.0000
      3 C          -5.2218    1.1182    1.4548 C.ar    1  UNL1        0.0000
      4 C          -4.5622    2.0383    2.3716 C.ar    1  UNL1        0.0000
      5 C          -3.2175    2.1276    2.3944 C.ar    1  UNL1        0.0000
      6 C          -2.4707    1.2977    1.4984 C.ar    1  UNL1        0.0000
      7 S          -0.7575    1.3229    1.4363 S.2     1  UNL1        0.0000
      8 C          -0.7522    0.1536    0.2278 C.ar    1  UNL1        0.0000
      9 C          -1.9936   -0.2906   -0.1676 C.ar    1  UNL1        0.0000
     10 N          -2.1369   -1.2376   -1.1388 N.ar    1  UNL1        0.0000
     11 C          -1.0483   -1.7736   -1.7487 C.ar    1  UNL1        0.0000
     12 C           0.2667   -1.4156   -1.4461 C.ar    1  UNL1        0.0000
     13 C           1.5704   -1.7688   -1.8779 C.ar    1  UNL1        0.0000
     14 C           2.4821   -1.0138   -1.1442 C.ar    1  UNL1        0.0000
     15 O           1.7723   -0.2113   -0.2786 O.2     1  UNL1        0.0000
     16 C           0.4609   -0.4652   -0.4739 C.ar    1  UNL1        0.0000
     17 C           3.9233   -1.0007   -1.2041 C.ar    1  UNL1        0.0000
     18 S           4.7952   -2.0244   -2.3070 S.2     1  UNL1        0.0000
     19 C           6.3369   -1.4530   -1.7945 C.ar    1  UNL1        0.0000
     20 C           6.1680   -0.5196   -0.8209 C.ar    1  UNL1        0.0000
     21 SI          7.3034    0.5534    0.2309 Si      1  UNL1        0.0000
     22 C           5.7490    1.2795    1.0608 C.2     1  UNL1        0.0000
     23 C           4.6180    0.7372    0.5575 C.2     1  UNL1        0.0000
     24 C           4.8148   -0.2474   -0.4705 C.ar    1  UNL1        0.0000
     25 C          -3.0015    0.3854    0.5830 C.ar    1  UNL1        0.0000
     26 C          -4.4326    0.2601    0.5273 C.ar    1  UNL1        0.0000
     27 C          -5.1734   -0.5407   -0.2619 C.2     1  UNL1        0.0000
     28 H          -7.6265   -1.5166    0.6607 H       1  UNL1        0.0000
     29 H          -7.7166    0.2844   -1.0823 H       1  UNL1        0.0000
     30 H          -7.3190    1.4750    1.9318 H       1  UNL1        0.0000
     31 H          -5.1703    2.6471    3.0320 H       1  UNL1        0.0000
     32 H          -2.7108    2.8076    3.0710 H       1  UNL1        0.0000
     33 H          -1.2706   -2.5188   -2.5073 H       1  UNL1        0.0000
     34 H           1.8203   -2.4939   -2.6399 H       1  UNL1        0.0000
     35 H           7.2458   -1.8369   -2.2377 H       1  UNL1        0.0000
     36 H           8.1243   -0.2119    1.2020 H       1  UNL1        0.0000
     37 H           8.0358    1.5889   -0.5395 H       1  UNL1        0.0000
     38 H           5.8279    2.0290    1.8318 H       1  UNL1        0.0000
     39 H           3.6305    1.0223    0.9025 H       1  UNL1        0.0000
     40 H          -4.8125   -1.2382   -1.0013 H       1  UNL1        0.0000
@<TRIPOS>BOND
     1     1     2    1
     2     2     3    2
     3     3     4   ar
     4     4     5   ar
     5     5     6   ar
     6     6     7   ar
     7     7     8   ar
     8     8     9   ar
     9     9    10   ar
    10    10    11   ar
    11    11    12   ar
    12    12    13   ar
    13    13    14   ar
    14    14    15   ar
    15    15    16   ar
    16    14    17    1
    17    17    18   ar
    18    18    19   ar
    19    19    20   ar
    20    20    21    1
    21    21    22    1
    22    22    23    2
    23    23    24    1
    24     9    25   ar
    25    25    26   ar
    26    26    27    2
    27    27     1    1
    28    26     3   ar
    29    25     6   ar
    30    16     8   ar
    31    24    17   ar
    32    16    12   ar
    33    24    20   ar
    34     1    28    1
    35     1    29    1
    36     2    30    1
    37     4    31    1
    38     5    32    1
    39    11    33    1
    40    13    34    1
    41    19    35    1
    42    21    36    1
    43    21    37    1
    44    22    38    1
    45    23    39    1
    46    27    40    1
