@<TRIPOS>MOLECULE
*****
 41 43 0 0 0
SMALL
GASTEIGER

@<TRIPOS>ATOM
      1 C           2.7995    2.9054    0.8523 C.3     1  UNL1       -0.0444
      2 C           1.7220    1.8400    0.6889 C.3     1  UNL1        0.0863
      3 S           2.3759    0.4481   -0.3198 S.3     1  UNL1       -0.0721
      4 C           3.0950   -0.5404    0.8962 C.ar    1  UNL1        0.2098
      5 N           3.1490   -0.3107    2.1870 N.ar    1  UNL1       -0.1015
      6 N           3.8048   -1.3896    2.7330 N.ar    1  UNL1       -0.0222
      7 N           4.1410   -2.2677    1.7966 N.ar    1  UNL1       -0.0435
      8 N           3.7007   -1.7358    0.6426 N.ar    1  UNL1       -0.2233
      9 C           3.8864   -2.4272   -0.6017 C.3     1  UNL1        0.0346
     10 C           0.4644    2.3963   -0.0003 C.2     1  UNL1        0.2303
     11 O           0.3767    3.5680   -0.3537 O.2     1  UNL1       -0.2743
     12 N          -0.5273    1.4337   -0.1188 N.am    1  UNL1       -0.2841
     13 C          -1.8299    1.5594   -0.6565 C.ar    1  UNL1        0.0412
     14 C          -2.3670    2.7896   -1.0497 C.ar    1  UNL1       -0.0399
     15 C          -3.6613    2.8694   -1.5709 C.ar    1  UNL1       -0.0600
     16 C          -4.4354    1.7219   -1.7051 C.ar    1  UNL1       -0.0611
     17 C          -3.9157    0.4883   -1.3176 C.ar    1  UNL1       -0.0523
     18 C          -2.6154    0.3857   -0.7905 C.ar    1  UNL1        0.0033
     19 C          -2.1094   -0.9425   -0.4092 C.ar    1  UNL1       -0.0161
     20 C          -1.4699   -1.7610   -1.3530 C.ar    1  UNL1       -0.0540
     21 C          -0.9494   -3.0028   -0.9831 C.ar    1  UNL1       -0.0612
     22 C          -1.0607   -3.4399    0.3353 C.ar    1  UNL1       -0.0617
     23 C          -1.6963   -2.6396    1.2830 C.ar    1  UNL1       -0.0612
     24 C          -2.2199   -1.3993    0.9128 C.ar    1  UNL1       -0.0540
     25 H           3.6810    2.5125    1.3700 H       1  UNL1        0.0245
     26 H           3.1187    3.3149   -0.1132 H       1  UNL1        0.0245
     27 H           2.4192    3.7444    1.4462 H       1  UNL1        0.0245
     28 H           1.4050    1.4852    1.6766 H       1  UNL1        0.0509
     29 H           4.4485   -3.3488   -0.4285 H       1  UNL1        0.0474
     30 H           4.4461   -1.7820   -1.2832 H       1  UNL1        0.0474
     31 H           2.9047   -2.6702   -1.0164 H       1  UNL1        0.0474
     32 H          -0.2525    0.4928    0.1437 H       1  UNL1        0.1549
     33 H          -1.8040    3.7132   -0.9577 H       1  UNL1        0.0636
     34 H          -4.0617    3.8350   -1.8704 H       1  UNL1        0.0618
     35 H          -5.4416    1.7869   -2.1106 H       1  UNL1        0.0618
     36 H          -4.5300   -0.4035   -1.4278 H       1  UNL1        0.0624
     37 H          -1.3719   -1.4270   -2.3846 H       1  UNL1        0.0624
     38 H          -0.4620   -3.6298   -1.7252 H       1  UNL1        0.0618
     39 H          -0.6587   -4.4077    0.6251 H       1  UNL1        0.0618
     40 H          -1.7867   -2.9817    2.3113 H       1  UNL1        0.0618
     41 H          -2.7123   -0.7831    1.6634 H       1  UNL1        0.0624
@<TRIPOS>BOND
     1     1     2    1
     2     2     3    1
     3     3     4    1
     4     4     5   ar
     5     5     6   ar
     6     6     7   ar
     7     7     8   ar
     8     8     9    1
     9     2    10    1
    10    10    11    2
    11    10    12   am
    12    12    13    1
    13    13    14   ar
    14    14    15   ar
    15    15    16   ar
    16    16    17   ar
    17    17    18   ar
    18    18    19    1
    19    19    20   ar
    20    20    21   ar
    21    21    22   ar
    22    22    23   ar
    23    23    24   ar
    24     8     4   ar
    25    18    13   ar
    26    24    19   ar
    27     1    25    1
    28     1    26    1
    29     1    27    1
    30     2    28    1
    31     9    29    1
    32     9    30    1
    33     9    31    1
    34    12    32    1
    35    14    33    1
    36    15    34    1
    37    16    35    1
    38    17    36    1
    39    20    37    1
    40    21    38    1
    41    22    39    1
    42    23    40    1
    43    24    41    1
