@<TRIPOS>MOLECULE
*****
 33 33 0 0 0
SMALL
GASTEIGER

@<TRIPOS>ATOM
      1 C          -5.6927   -1.9656   -0.1475 C.3     1  UNL1       -0.0463
      2 C          -4.5707   -1.0714    0.2670 C.2     1  UNL1       -0.0804
      3 C          -4.1374   -0.0314   -0.4617 C.2     1  UNL1        0.0183
      4 C          -3.0190    0.8066    0.0132 C.2     1  UNL1        0.3321
      5 O          -2.3994    0.6466    1.0537 O.2     1  UNL1       -0.2456
      6 O          -2.7841    1.7710   -0.9071 O.3     1  UNL1       -0.4521
      7 C          -1.7422    2.6877   -0.5711 C.3     1  UNL1        0.1687
      8 C          -0.3251    2.1571   -0.8276 C.2     1  UNL1        0.2549
      9 O           0.3298    2.5577   -1.7862 O.2     1  UNL1       -0.2717
     10 N           0.0881    1.2367    0.1203 N.am    1  UNL1       -0.2827
     11 C           1.3268    0.5713    0.1999 C.ar    1  UNL1        0.0351
     12 C           2.3956    0.8028   -0.6649 C.ar    1  UNL1       -0.0369
     13 C           3.6010    0.1002   -0.5207 C.ar    1  UNL1       -0.0167
     14 C           3.7575   -0.8469    0.4938 C.ar    1  UNL1        0.1384
     15 O           4.8959   -1.5778    0.7081 O.3     1  UNL1       -0.4936
     16 C           5.9939   -1.3599   -0.1676 C.3     1  UNL1        0.0789
     17 C           2.6808   -1.0757    1.3629 C.ar    1  UNL1        0.0843
     18 CL          2.7896   -2.2312    2.6473 Cl      1  UNL1       -0.0797
     19 C           1.4785   -0.3737    1.2183 C.ar    1  UNL1       -0.0186
     20 H          -6.4898   -1.9349    0.6015 H       1  UNL1        0.0272
     21 H          -5.3364   -2.9969   -0.2294 H       1  UNL1        0.0272
     22 H          -6.1193   -1.6739   -1.1124 H       1  UNL1        0.0272
     23 H          -4.0975   -1.3042    1.2200 H       1  UNL1        0.0571
     24 H          -4.5832    0.2290   -1.4146 H       1  UNL1        0.0685
     25 H          -1.8317    3.0267    0.4688 H       1  UNL1        0.0796
     26 H          -1.8823    3.5779   -1.1947 H       1  UNL1        0.0796
     27 H          -0.6132    0.9632    0.8120 H       1  UNL1        0.1549
     28 H           2.3299    1.5298   -1.4693 H       1  UNL1        0.0637
     29 H           4.3963    0.3240   -1.2246 H       1  UNL1        0.0655
     30 H           6.8072   -2.0218    0.1451 H       1  UNL1        0.0660
     31 H           6.3576   -0.3296   -0.0959 H       1  UNL1        0.0660
     32 H           5.7334   -1.6179   -1.1994 H       1  UNL1        0.0660
     33 H           0.6620   -0.5754    1.9075 H       1  UNL1        0.0652
@<TRIPOS>BOND
     1     1     2    1
     2     2     3    2
     3     3     4    1
     4     4     5    2
     5     4     6    1
     6     6     7    1
     7     7     8    1
     8     8     9    2
     9     8    10   am
    10    10    11    1
    11    11    12   ar
    12    12    13   ar
    13    13    14   ar
    14    14    15    1
    15    15    16    1
    16    14    17   ar
    17    17    18    1
    18    17    19   ar
    19    19    11   ar
    20     1    20    1
    21     1    21    1
    22     1    22    1
    23     2    23    1
    24     3    24    1
    25     7    25    1
    26     7    26    1
    27    10    27    1
    28    12    28    1
    29    13    29    1
    30    16    30    1
    31    16    31    1
    32    16    32    1
    33    19    33    1
