@<TRIPOS>MOLECULE
*****
 46 48 0 0 0
SMALL
GASTEIGER

@<TRIPOS>ATOM
      1 C          -1.6457   -1.5488    1.3712 C.3     1  UNL1       -0.0349
      2 C          -0.6103   -0.4256    1.4693 C.3     1  UNL1        0.1112
      3 C           0.8213   -1.0453    1.4517 C.2     1  UNL1        0.2367
      4 O           1.0657   -2.1551    1.9212 O.2     1  UNL1       -0.2735
      5 N           1.8190   -0.2017    0.9989 N.am    1  UNL1       -0.3107
      6 C           3.1931   -0.6560    0.8548 C.3     1  UNL1        0.0232
      7 C           3.3945   -1.4491   -0.4343 C.3     1  UNL1       -0.0345
      8 C           3.5489   -0.3873   -1.5191 C.3     1  UNL1       -0.0513
      9 C           4.0495    0.8731   -0.8123 C.3     1  UNL1       -0.0513
     10 C           4.1478    0.5193    0.6705 C.3     1  UNL1       -0.0345
     11 C          -0.8082    0.3623    2.7730 C.3     1  UNL1       -0.0148
     12 C          -0.3626    1.7833    2.4499 C.3     1  UNL1        0.0266
     13 C          -0.5922    1.8944    0.9660 C.2     1  UNL1        0.2167
     14 O          -0.5577    2.9326    0.3271 O.2     1  UNL1       -0.2756
     15 N          -0.7649    0.6182    0.4520 N.am    1  UNL1       -0.2832
     16 C          -0.9140    0.3455   -0.9715 C.3     1  UNL1        0.0407
     17 C          -2.3515    0.1725   -1.3941 C.ar    1  UNL1       -0.0301
     18 C          -2.7870   -1.0298   -1.9707 C.ar    1  UNL1       -0.0571
     19 C          -4.1154   -1.1855   -2.3706 C.ar    1  UNL1       -0.0615
     20 C          -5.0212   -0.1399   -2.2060 C.ar    1  UNL1       -0.0617
     21 C          -4.5996    1.0632   -1.6446 C.ar    1  UNL1       -0.0615
     22 C          -3.2721    1.2202   -1.2439 C.ar    1  UNL1       -0.0571
     23 H          -2.6657   -1.1524    1.3129 H       1  UNL1        0.0255
     24 H          -1.5952   -2.2109    2.2438 H       1  UNL1        0.0255
     25 H          -1.4737   -2.1714    0.4866 H       1  UNL1        0.0255
     26 H           1.5235    0.5900    0.4392 H       1  UNL1        0.1490
     27 H           3.4540   -1.2536    1.7349 H       1  UNL1        0.0498
     28 H           4.3210   -2.0323   -0.3662 H       1  UNL1        0.0283
     29 H           2.5769   -2.1418   -0.6580 H       1  UNL1        0.0283
     30 H           4.2380   -0.7153   -2.3026 H       1  UNL1        0.0266
     31 H           2.5827   -0.1873   -1.9959 H       1  UNL1        0.0266
     32 H           5.0160    1.2043   -1.2065 H       1  UNL1        0.0266
     33 H           3.3363    1.6927   -0.9630 H       1  UNL1        0.0266
     34 H           3.9111    1.3752    1.3111 H       1  UNL1        0.0283
     35 H           5.1730    0.2008    0.8967 H       1  UNL1        0.0283
     36 H          -1.8689    0.3858    3.0546 H       1  UNL1        0.0295
     37 H          -0.2527   -0.0504    3.6215 H       1  UNL1        0.0295
     38 H          -0.9568    2.5234    2.9916 H       1  UNL1        0.0359
     39 H           0.7012    1.9307    2.6594 H       1  UNL1        0.0359
     40 H          -0.4881    1.1794   -1.5423 H       1  UNL1        0.0514
     41 H          -0.3168   -0.5405   -1.2155 H       1  UNL1        0.0514
     42 H          -2.0958   -1.8576   -2.1108 H       1  UNL1        0.0621
     43 H          -4.4436   -2.1228   -2.8129 H       1  UNL1        0.0618
     44 H          -6.0546   -0.2606   -2.5197 H       1  UNL1        0.0618
     45 H          -5.3024    1.8831   -1.5216 H       1  UNL1        0.0618
     46 H          -2.9564    2.1709   -0.8174 H       1  UNL1        0.0621
@<TRIPOS>BOND
     1     1     2    1
     2     2     3    1
     3     3     4    2
     4     3     5   am
     5     5     6    1
     6     6     7    1
     7     7     8    1
     8     8     9    1
     9     9    10    1
    10     2    11    1
    11    11    12    1
    12    12    13    1
    13    13    14    2
    14    13    15   am
    15    15    16    1
    16    16    17    1
    17    17    18   ar
    18    18    19   ar
    19    19    20   ar
    20    20    21   ar
    21    21    22   ar
    22    15     2    1
    23    22    17   ar
    24    10     6    1
    25     1    23    1
    26     1    24    1
    27     1    25    1
    28     5    26    1
    29     6    27    1
    30     7    28    1
    31     7    29    1
    32     8    30    1
    33     8    31    1
    34     9    32    1
    35     9    33    1
    36    10    34    1
    37    10    35    1
    38    11    36    1
    39    11    37    1
    40    12    38    1
    41    12    39    1
    42    16    40    1
    43    16    41    1
    44    18    42    1
    45    19    43    1
    46    20    44    1
    47    21    45    1
    48    22    46    1
