@<TRIPOS>MOLECULE
*****
 40 43 0 0 0
SMALL
GASTEIGER

@<TRIPOS>ATOM
      1 C          -1.1215   -1.8755   -1.5892 C.3     1  UNL1       -0.0517
      2 C          -1.0149   -1.1572   -0.2392 C.3     1  UNL1        0.0163
      3 C          -0.7638   -2.1552    0.8969 C.3     1  UNL1       -0.0517
      4 C          -2.2661   -0.3167    0.0351 C.ar    1  UNL1       -0.0290
      5 C          -1.9211    1.0510    0.1356 C.ar    1  UNL1       -0.0135
      6 C          -2.8920    2.0098    0.3811 C.ar    1  UNL1       -0.0531
      7 C          -4.2193    1.5939    0.5275 C.ar    1  UNL1       -0.0509
      8 C          -4.5574    0.2317    0.4265 C.ar    1  UNL1        0.0145
      9 C          -5.9646   -0.1898    0.5837 C.2     1  UNL1        0.1502
     10 O          -6.8656    0.6090    0.8064 O.2     1  UNL1       -0.2957
     11 C          -3.5816   -0.7397    0.1785 C.ar    1  UNL1       -0.0469
     12 C          -0.4935    1.1927   -0.0553 C.ar    1  UNL1       -0.0135
     13 C           0.3036    2.3244   -0.0618 C.ar    1  UNL1       -0.0520
     14 C           1.6786    2.1720   -0.2792 C.ar    1  UNL1       -0.0401
     15 C           2.2606    0.9006   -0.4702 C.ar    1  UNL1        0.0303
     16 N           3.6507    0.7792   -0.7204 N.pl3   1  UNL1       -0.3238
     17 C           4.6013    1.3725    0.2161 C.3     1  UNL1        0.0308
     18 C           4.4434   -0.1294    0.0968 C.3     1  UNL1        0.0364
     19 C           5.4967   -0.9533   -0.5538 C.3     1  UNL1       -0.0450
     20 C           1.4361   -0.2342   -0.4895 C.ar    1  UNL1       -0.0361
     21 C           0.0717   -0.0813   -0.2734 C.ar    1  UNL1       -0.0279
     22 H          -1.3012   -1.1700   -2.4098 H       1  UNL1        0.0241
     23 H          -1.9457   -2.5981   -1.5927 H       1  UNL1        0.0241
     24 H          -0.2013   -2.4228   -1.8239 H       1  UNL1        0.0241
     25 H          -1.5759   -2.8875    0.9716 H       1  UNL1        0.0241
     26 H           0.1685   -2.7103    0.7416 H       1  UNL1        0.0241
     27 H          -0.6869   -1.6515    1.8684 H       1  UNL1        0.0241
     28 H          -2.6394    3.0622    0.4598 H       1  UNL1        0.0624
     29 H          -4.9950    2.3332    0.7207 H       1  UNL1        0.0625
     30 H          -6.1676   -1.2699    0.4904 H       1  UNL1        0.1081
     31 H          -3.8360   -1.7914    0.0989 H       1  UNL1        0.0628
     32 H          -0.1166    3.3131    0.0869 H       1  UNL1        0.0624
     33 H           2.3086    3.0579   -0.3089 H       1  UNL1        0.0636
     34 H           5.4291    1.8603   -0.2777 H       1  UNL1        0.0482
     35 H           4.1826    1.8608    1.0850 H       1  UNL1        0.0482
     36 H           3.9245   -0.6498    0.8922 H       1  UNL1        0.0512
     37 H           5.9901   -0.4205   -1.3734 H       1  UNL1        0.0248
     38 H           5.0599   -1.8713   -0.9593 H       1  UNL1        0.0248
     39 H           6.2601   -1.2340    0.1783 H       1  UNL1        0.0248
     40 H           1.8608   -1.2147   -0.6780 H       1  UNL1        0.0639
@<TRIPOS>BOND
     1     1     2    1
     2     2     3    1
     3     2     4    1
     4     4     5   ar
     5     5     6   ar
     6     6     7   ar
     7     7     8   ar
     8     8     9    1
     9     9    10    2
    10     8    11   ar
    11     5    12    1
    12    12    13   ar
    13    13    14   ar
    14    14    15   ar
    15    15    16    1
    16    16    17    1
    17    17    18    1
    18    18    19    1
    19    15    20   ar
    20    20    21   ar
    21    21     2    1
    22    11     4   ar
    23    21    12   ar
    24    18    16    1
    25     1    22    1
    26     1    23    1
    27     1    24    1
    28     3    25    1
    29     3    26    1
    30     3    27    1
    31     6    28    1
    32     7    29    1
    33     9    30    1
    34    11    31    1
    35    13    32    1
    36    14    33    1
    37    17    34    1
    38    17    35    1
    39    18    36    1
    40    19    37    1
    41    19    38    1
    42    19    39    1
    43    20    40    1
