@<TRIPOS>MOLECULE
*****
 40 43 0 0 0
SMALL
GASTEIGER

@<TRIPOS>ATOM
      1 C           1.0366    1.3444    1.9289 C.3     1  UNL1       -0.0517
      2 C           1.0715    0.0053    1.1838 C.3     1  UNL1        0.0163
      3 C           1.0412   -1.1719    2.1650 C.3     1  UNL1       -0.0517
      4 C           2.2924   -0.0790    0.2634 C.ar    1  UNL1       -0.0290
      5 C           1.8815   -0.2083   -1.0827 C.ar    1  UNL1       -0.0135
      6 C           2.8168   -0.3039   -2.1022 C.ar    1  UNL1       -0.0531
      7 C           4.1760   -0.2694   -1.7702 C.ar    1  UNL1       -0.0509
      8 C           4.5782   -0.1402   -0.4278 C.ar    1  UNL1        0.0145
      9 C           6.0210   -0.1068   -0.1123 C.2     1  UNL1        0.1502
     10 O           6.4364    0.0063    1.0342 O.2     1  UNL1       -0.2957
     11 C           3.6379   -0.0437    0.6033 C.ar    1  UNL1       -0.0469
     12 C           0.4353   -0.2160   -1.1343 C.ar    1  UNL1       -0.0135
     13 C          -0.4254   -0.3277   -2.2113 C.ar    1  UNL1       -0.0520
     14 C          -1.8056   -0.3082   -1.9698 C.ar    1  UNL1       -0.0401
     15 C          -2.3320   -0.1706   -0.6676 C.ar    1  UNL1        0.0300
     16 N          -3.7277   -0.1639   -0.4550 N.pl3   1  UNL1       -0.3298
     17 C          -4.7435    0.2262   -1.3920 C.3     1  UNL1        0.0136
     18 C          -5.6989    0.2957   -0.1966 C.3     1  UNL1       -0.0214
     19 C          -4.4301    0.4215    0.6524 C.3     1  UNL1        0.0136
     20 C          -1.4442   -0.0722    0.4138 C.ar    1  UNL1       -0.0361
     21 C          -0.0744   -0.0910    0.1740 C.ar    1  UNL1       -0.0279
     22 H           0.1284    1.4401    2.5351 H       1  UNL1        0.0241
     23 H           1.0584    2.1941    1.2355 H       1  UNL1        0.0241
     24 H           1.8955    1.4492    2.6018 H       1  UNL1        0.0241
     25 H           0.1335   -1.1561    2.7793 H       1  UNL1        0.0241
     26 H           1.0655   -2.1357    1.6417 H       1  UNL1        0.0241
     27 H           1.9007   -1.1470    2.8448 H       1  UNL1        0.0241
     28 H           2.5090   -0.4038   -3.1381 H       1  UNL1        0.0624
     29 H           4.9145   -0.3441   -2.5649 H       1  UNL1        0.0625
     30 H           6.7136   -0.1892   -0.9665 H       1  UNL1        0.1081
     31 H           3.9545    0.0555    1.6377 H       1  UNL1        0.0628
     32 H          -0.0535   -0.4334   -3.2244 H       1  UNL1        0.0624
     33 H          -2.4801   -0.4086   -2.8164 H       1  UNL1        0.0636
     34 H          -4.9716   -0.5407   -2.1356 H       1  UNL1        0.0464
     35 H          -4.5327    1.1872   -1.8728 H       1  UNL1        0.0464
     36 H          -6.2701   -0.6228   -0.0213 H       1  UNL1        0.0295
     37 H          -6.3733    1.1552   -0.1754 H       1  UNL1        0.0295
     38 H          -4.4049   -0.1879    1.5585 H       1  UNL1        0.0464
     39 H          -4.1135    1.4485    0.8624 H       1  UNL1        0.0464
     40 H          -1.8170    0.0128    1.4288 H       1  UNL1        0.0639
@<TRIPOS>BOND
     1     1     2    1
     2     2     3    1
     3     2     4    1
     4     4     5   ar
     5     5     6   ar
     6     6     7   ar
     7     7     8   ar
     8     8     9    1
     9     9    10    2
    10     8    11   ar
    11     5    12    1
    12    12    13   ar
    13    13    14   ar
    14    14    15   ar
    15    15    16    1
    16    16    17    1
    17    17    18    1
    18    18    19    1
    19    15    20   ar
    20    20    21   ar
    21    21     2    1
    22    11     4   ar
    23    21    12   ar
    24    19    16    1
    25     1    22    1
    26     1    23    1
    27     1    24    1
    28     3    25    1
    29     3    26    1
    30     3    27    1
    31     6    28    1
    32     7    29    1
    33     9    30    1
    34    11    31    1
    35    13    32    1
    36    14    33    1
    37    17    34    1
    38    17    35    1
    39    18    36    1
    40    18    37    1
    41    19    38    1
    42    19    39    1
    43    20    40    1
