@<TRIPOS>MOLECULE
*****
 44 47 0 0 0
SMALL
GASTEIGER

@<TRIPOS>ATOM
      1 C          -1.6181   -2.4500   -0.3022 C.3     1  UNL1       -0.0517
      2 C          -1.5868   -1.1125    0.4460 C.3     1  UNL1        0.0163
      3 C          -1.4907   -1.3307    1.9602 C.3     1  UNL1       -0.0517
      4 C          -2.8079   -0.2576    0.0919 C.ar    1  UNL1       -0.0290
      5 C          -2.3956    0.9452   -0.5263 C.ar    1  UNL1       -0.0135
      6 C          -3.3276    1.8849   -0.9391 C.ar    1  UNL1       -0.0531
      7 C          -4.6841    1.6164   -0.7300 C.ar    1  UNL1       -0.0509
      8 C          -5.0893    0.4177   -0.1141 C.ar    1  UNL1        0.0145
      9 C          -6.5265    0.1503    0.0990 C.2     1  UNL1        0.1502
     10 O          -7.3966    0.9418   -0.2419 O.2     1  UNL1       -0.2957
     11 C          -4.1528   -0.5338    0.3040 C.ar    1  UNL1       -0.0469
     12 C          -0.9515    0.9586   -0.6137 C.ar    1  UNL1       -0.0135
     13 C          -0.0914    1.9041   -1.1361 C.ar    1  UNL1       -0.0520
     14 C           1.2864    1.6513   -1.0878 C.ar    1  UNL1       -0.0401
     15 C           1.8269    0.4724   -0.5195 C.ar    1  UNL1        0.0301
     16 N           3.2216    0.2948   -0.5198 N.pl3   1  UNL1       -0.3255
     17 C           3.9520    1.3256    0.2600 C.3     1  UNL1        0.0357
     18 C           5.4643    1.2006    0.0080 C.3     1  UNL1        0.0634
     19 O           5.9475   -0.1197    0.3045 O.3     1  UNL1       -0.3767
     20 C           5.2674   -1.0849   -0.5144 C.3     1  UNL1        0.0634
     21 C           3.7518   -1.0614   -0.2616 C.3     1  UNL1        0.0357
     22 C           0.9282   -0.4786   -0.0107 C.ar    1  UNL1       -0.0361
     23 C          -0.4418   -0.2292   -0.0555 C.ar    1  UNL1       -0.0279
     24 H          -0.7135   -3.0376   -0.1075 H       1  UNL1        0.0241
     25 H          -2.4783   -3.0574    0.0021 H       1  UNL1        0.0241
     26 H          -1.6871   -2.3052   -1.3874 H       1  UNL1        0.0241
     27 H          -1.4677   -0.3792    2.5055 H       1  UNL1        0.0241
     28 H          -0.5821   -1.8827    2.2272 H       1  UNL1        0.0241
     29 H          -2.3469   -1.9025    2.3361 H       1  UNL1        0.0241
     30 H          -3.0227    2.8113   -1.4149 H       1  UNL1        0.0624
     31 H          -5.4301    2.3430   -1.0478 H       1  UNL1        0.0625
     32 H          -6.7819   -0.8061    0.5851 H       1  UNL1        0.1081
     33 H          -4.4589   -1.4599    0.7792 H       1  UNL1        0.0628
     34 H          -0.4602    2.8198   -1.5849 H       1  UNL1        0.0624
     35 H           1.9562    2.3843   -1.5325 H       1  UNL1        0.0636
     36 H           3.6444    2.3419   -0.0081 H       1  UNL1        0.0486
     37 H           3.7476    1.1757    1.3281 H       1  UNL1        0.0486
     38 H           6.0059    1.9026    0.6498 H       1  UNL1        0.0575
     39 H           5.7093    1.4428   -1.0332 H       1  UNL1        0.0575
     40 H           5.4963   -0.8848   -1.5681 H       1  UNL1        0.0575
     41 H           5.6700   -2.0718   -0.2658 H       1  UNL1        0.0575
     42 H           3.5637   -1.3406    0.7828 H       1  UNL1        0.0486
     43 H           3.2755   -1.7955   -0.9217 H       1  UNL1        0.0486
     44 H           1.2752   -1.4033    0.4350 H       1  UNL1        0.0639
@<TRIPOS>BOND
     1     1     2    1
     2     2     3    1
     3     2     4    1
     4     4     5   ar
     5     5     6   ar
     6     6     7   ar
     7     7     8   ar
     8     8     9    1
     9     9    10    2
    10     8    11   ar
    11     5    12    1
    12    12    13   ar
    13    13    14   ar
    14    14    15   ar
    15    15    16    1
    16    16    17    1
    17    17    18    1
    18    18    19    1
    19    19    20    1
    20    20    21    1
    21    15    22   ar
    22    22    23   ar
    23    23     2    1
    24    11     4   ar
    25    23    12   ar
    26    21    16    1
    27     1    24    1
    28     1    25    1
    29     1    26    1
    30     3    27    1
    31     3    28    1
    32     3    29    1
    33     6    30    1
    34     7    31    1
    35     9    32    1
    36    11    33    1
    37    13    34    1
    38    14    35    1
    39    17    36    1
    40    17    37    1
    41    18    38    1
    42    18    39    1
    43    20    40    1
    44    20    41    1
    45    21    42    1
    46    21    43    1
    47    22    44    1
