@<TRIPOS>MOLECULE
*****
 35 37 0 0 0
SMALL
GASTEIGER

@<TRIPOS>ATOM
      1 C          -1.9049    1.1979   -1.1192 C.3     1  UNL1       -0.0517
      2 C          -0.6927    0.9350   -0.2241 C.3     1  UNL1        0.0173
      3 C          -0.2633    2.2005    0.5201 C.3     1  UNL1       -0.0517
      4 C           0.4733    0.3191   -1.0143 C.ar    1  UNL1       -0.0215
      5 C           1.3025    0.7060   -2.0927 C.ar    1  UNL1       -0.0428
      6 C           2.2418   -0.2798   -2.4005 C.ar    1  UNL1        0.0150
      7 C           3.2696   -0.3397   -3.3912 C.2     1  UNL1       -0.0202
      8 C           3.9968    0.7051   -3.8341 C.2     1  UNL1        0.1292
      9 C           3.8527    2.0365   -3.3547 C.1     1  UNL1        0.1102
     10 N           3.7242    3.1247   -2.9718 N.1     1  UNL1       -0.1901
     11 C           4.9931    0.4669   -4.8247 C.1     1  UNL1        0.1102
     12 N           5.7958    0.2490   -5.6335 N.1     1  UNL1       -0.1901
     13 S           2.0339   -1.6799   -1.3669 S.2     1  UNL1       -0.0880
     14 C           0.7886   -0.9425   -0.5559 C.ar    1  UNL1        0.0308
     15 C          -0.0744   -1.2790    0.5143 C.ar    1  UNL1        0.0308
     16 S          -0.2885   -2.5854    1.5142 S.2     1  UNL1       -0.0880
     17 C          -1.5945   -1.7755    2.3573 C.ar    1  UNL1        0.0150
     18 C          -2.2262   -2.4824    3.4260 C.2     1  UNL1       -0.0202
     19 C          -2.7506   -1.9255    4.5358 C.2     1  UNL1        0.1292
     20 C          -2.7324   -0.5302    4.8117 C.1     1  UNL1        0.1102
     21 N          -2.7294    0.6101    5.0284 N.1     1  UNL1       -0.1901
     22 C          -3.3379   -2.7815    5.5119 C.1     1  UNL1        0.1102
     23 N          -3.8134   -3.4982    6.2906 N.1     1  UNL1       -0.1901
     24 C          -1.8380   -0.5186    1.8008 C.ar    1  UNL1       -0.0428
     25 C          -0.9438   -0.2335    0.7428 C.ar    1  UNL1       -0.0215
     26 H          -2.7633    1.5424   -0.5311 H       1  UNL1        0.0241
     27 H          -2.2171    0.2931   -1.6549 H       1  UNL1        0.0241
     28 H          -1.6822    1.9630   -1.8716 H       1  UNL1        0.0241
     29 H           0.6057    2.0174    1.1638 H       1  UNL1        0.0241
     30 H          -1.0704    2.5761    1.1594 H       1  UNL1        0.0241
     31 H           0.0110    2.9973   -0.1808 H       1  UNL1        0.0241
     32 H           1.2094    1.6519   -2.6131 H       1  UNL1        0.0632
     33 H           3.4911   -1.3308   -3.7914 H       1  UNL1        0.0648
     34 H          -2.2503   -3.5697    3.3323 H       1  UNL1        0.0648
     35 H          -2.6161    0.1602    2.1295 H       1  UNL1        0.0632
@<TRIPOS>BOND
     1     1     2    1
     2     2     3    1
     3     2     4    1
     4     4     5   ar
     5     5     6   ar
     6     6     7    1
     7     7     8    2
     8     8     9    1
     9     9    10    3
    10     8    11    1
    11    11    12    3
    12     6    13   ar
    13    13    14   ar
    14    14    15    1
    15    15    16   ar
    16    16    17   ar
    17    17    18    1
    18    18    19    2
    19    19    20    1
    20    20    21    3
    21    19    22    1
    22    22    23    3
    23    17    24   ar
    24    24    25   ar
    25    25     2    1
    26    14     4   ar
    27    25    15   ar
    28     1    26    1
    29     1    27    1
    30     1    28    1
    31     3    29    1
    32     3    30    1
    33     3    31    1
    34     5    32    1
    35     7    33    1
    36    18    34    1
    37    24    35    1
