@<TRIPOS>MOLECULE
*****
 47 52 0 0 0
SMALL
GASTEIGER

@<TRIPOS>ATOM
      1 C          -4.9527   -1.3627   -1.0057 C.3     1  UNL1       -0.0517
      2 C          -4.2465   -0.5038    0.0495 C.3     1  UNL1        0.0162
      3 C          -4.8475   -0.7364    1.4404 C.3     1  UNL1       -0.0517
      4 C          -4.2943    0.9789   -0.3282 C.ar    1  UNL1       -0.0297
      5 C          -5.4037    1.7973   -0.4911 C.ar    1  UNL1       -0.0572
      6 C          -5.1946    3.1315   -0.8448 C.ar    1  UNL1       -0.0614
      7 C          -3.8950    3.6294   -1.0305 C.ar    1  UNL1       -0.0612
      8 C          -2.7802    2.8016   -0.8651 C.ar    1  UNL1       -0.0537
      9 C          -2.9856    1.4770   -0.5132 C.ar    1  UNL1       -0.0136
     10 C          -2.0361    0.4093   -0.2778 C.ar    1  UNL1       -0.0130
     11 C          -0.6484    0.4119   -0.3396 C.ar    1  UNL1       -0.0445
     12 C           0.0685   -0.7710   -0.0644 C.ar    1  UNL1        0.0010
     13 C           1.5473   -0.8121   -0.1089 C.ar    1  UNL1        0.0730
     14 C           2.3339    0.2704    0.2906 C.ar    1  UNL1       -0.0117
     15 C           3.7160    0.0971    0.1993 C.ar    1  UNL1        0.0510
     16 N           4.7471    0.9513    0.5107 N.ar    1  UNL1       -0.3540
     17 C           5.9623    0.3600    0.2586 C.ar    1  UNL1        0.0504
     18 C           7.2579    0.8463    0.4198 C.ar    1  UNL1       -0.0196
     19 C           8.2637   -0.0381    0.0608 C.ar    1  UNL1        0.0295
     20 N           8.0643   -1.2870   -0.4142 N.ar    1  UNL1       -0.2625
     21 C           6.7936   -1.7374   -0.5619 C.ar    1  UNL1        0.0373
     22 C           5.7047   -0.9218   -0.2282 C.ar    1  UNL1        0.0269
     23 C           4.2848   -1.0871   -0.2625 C.ar    1  UNL1        0.0270
     24 C           3.4294   -2.1268   -0.6376 C.ar    1  UNL1        0.0380
     25 N           2.0836   -1.9793   -0.5518 N.ar    1  UNL1       -0.2542
     26 C          -0.6682   -1.9396    0.2542 C.ar    1  UNL1       -0.0522
     27 C          -2.0656   -1.9472    0.3179 C.ar    1  UNL1       -0.0565
     28 C          -2.7389   -0.7668    0.0528 C.ar    1  UNL1       -0.0296
     29 H          -4.8611   -2.4308   -0.7773 H       1  UNL1        0.0241
     30 H          -4.5300   -1.2043   -2.0055 H       1  UNL1        0.0241
     31 H          -6.0218   -1.1273   -1.0615 H       1  UNL1        0.0241
     32 H          -4.3497   -0.1259    2.2037 H       1  UNL1        0.0241
     33 H          -4.7515   -1.7846    1.7461 H       1  UNL1        0.0241
     34 H          -5.9135   -0.4821    1.4621 H       1  UNL1        0.0241
     35 H          -6.4099    1.4166   -0.3502 H       1  UNL1        0.0621
     36 H          -6.0469    3.7934   -0.9796 H       1  UNL1        0.0618
     37 H          -3.7551    4.6716   -1.3079 H       1  UNL1        0.0618
     38 H          -1.7817    3.1974   -1.0137 H       1  UNL1        0.0624
     39 H          -0.1280    1.3222   -0.6192 H       1  UNL1        0.0630
     40 H           1.9019    1.1883    0.6688 H       1  UNL1        0.0660
     41 H           4.6286    1.8863    0.8740 H       1  UNL1        0.1659
     42 H           7.4738    1.8375    0.7962 H       1  UNL1        0.0653
     43 H           9.3079    0.2513    0.1514 H       1  UNL1        0.0830
     44 H           6.6839   -2.7451   -0.9459 H       1  UNL1        0.0836
     45 H           3.7828   -3.0831   -1.0059 H       1  UNL1        0.0836
     46 H          -0.1322   -2.8665    0.4587 H       1  UNL1        0.0624
     47 H          -2.5974   -2.8598    0.5658 H       1  UNL1        0.0621
@<TRIPOS>BOND
     1     1     2    1
     2     2     3    1
     3     2     4    1
     4     4     5   ar
     5     5     6   ar
     6     6     7   ar
     7     7     8   ar
     8     8     9   ar
     9     9    10    1
    10    10    11   ar
    11    11    12   ar
    12    12    13    1
    13    13    14   ar
    14    14    15   ar
    15    15    16   ar
    16    16    17   ar
    17    17    18   ar
    18    18    19   ar
    19    19    20   ar
    20    20    21   ar
    21    21    22   ar
    22    22    23   ar
    23    23    24   ar
    24    24    25   ar
    25    12    26   ar
    26    26    27   ar
    27    27    28   ar
    28    28     2    1
    29     9     4   ar
    30    28    10   ar
    31    25    13   ar
    32    23    15   ar
    33    22    17   ar
    34     1    29    1
    35     1    30    1
    36     1    31    1
    37     3    32    1
    38     3    33    1
    39     3    34    1
    40     5    35    1
    41     6    36    1
    42     7    37    1
    43     8    38    1
    44    11    39    1
    45    14    40    1
    46    16    41    1
    47    18    42    1
    48    19    43    1
    49    21    44    1
    50    24    45    1
    51    26    46    1
    52    27    47    1
