@<TRIPOS>MOLECULE
*****
 42 46 0 0 0
SMALL
GASTEIGER

@<TRIPOS>ATOM
      1 C          -3.6754    1.8329   -1.2341 C.3     1  UNL1       -0.0517
      2 C          -3.0717    1.1873    0.0183 C.3     1  UNL1        0.0162
      3 C          -3.5123    1.9280    1.2860 C.3     1  UNL1       -0.0517
      4 C          -3.4313   -0.2984    0.0976 C.ar    1  UNL1       -0.0297
      5 C          -4.6864   -0.8826    0.1994 C.ar    1  UNL1       -0.0572
      6 C          -4.7648   -2.2754    0.2543 C.ar    1  UNL1       -0.0614
      7 C          -3.6027   -3.0619    0.2071 C.ar    1  UNL1       -0.0612
      8 C          -2.3403   -2.4694    0.1048 C.ar    1  UNL1       -0.0537
      9 C          -2.2603   -1.0869    0.0513 C.ar    1  UNL1       -0.0136
     10 C          -1.1081   -0.2162   -0.0530 C.ar    1  UNL1       -0.0130
     11 C           0.2436   -0.5215   -0.1278 C.ar    1  UNL1       -0.0446
     12 C           1.1760    0.5243   -0.2274 C.ar    1  UNL1       -0.0011
     13 C           2.6102    0.2411   -0.3026 C.ar    1  UNL1        0.0475
     14 C           3.6147    0.8559   -1.0312 C.ar    1  UNL1       -0.0272
     15 C           4.8474    0.2085   -0.7412 C.ar    1  UNL1        0.0183
     16 C           6.1697    0.3779   -1.1681 C.ar    1  UNL1        0.0367
     17 N           7.1559   -0.4213   -0.6894 N.ar    1  UNL1       -0.2625
     18 C           6.8379   -1.3823    0.2062 C.ar    1  UNL1        0.0295
     19 C           5.5620   -1.6306    0.6906 C.ar    1  UNL1       -0.0196
     20 C           4.5688   -0.7971    0.1814 C.ar    1  UNL1        0.0498
     21 N           3.2176   -0.7544    0.4321 N.ar    1  UNL1       -0.3541
     22 C           0.7219    1.8600   -0.2581 C.ar    1  UNL1       -0.0523
     23 C          -0.6396    2.1693   -0.1814 C.ar    1  UNL1       -0.0565
     24 C          -1.5451    1.1250   -0.0777 C.ar    1  UNL1       -0.0296
     25 H          -3.3661    1.3106   -2.1478 H       1  UNL1        0.0241
     26 H          -3.3635    2.8789   -1.3337 H       1  UNL1        0.0241
     27 H          -4.7710    1.8164   -1.2029 H       1  UNL1        0.0241
     28 H          -4.6027    1.9150    1.3971 H       1  UNL1        0.0241
     29 H          -3.1946    2.9768    1.2661 H       1  UNL1        0.0241
     30 H          -3.0858    1.4739    2.1890 H       1  UNL1        0.0241
     31 H          -5.5876   -0.2793    0.2347 H       1  UNL1        0.0621
     32 H          -5.7362   -2.7581    0.3332 H       1  UNL1        0.0618
     33 H          -3.6870   -4.1454    0.2493 H       1  UNL1        0.0618
     34 H          -1.4505   -3.0882    0.0668 H       1  UNL1        0.0624
     35 H           0.5650   -1.5574   -0.1302 H       1  UNL1        0.0630
     36 H           3.4760    1.6832   -1.7154 H       1  UNL1        0.0645
     37 H           6.4671    1.1360   -1.8831 H       1  UNL1        0.0836
     38 H           7.6793   -1.9818    0.5449 H       1  UNL1        0.0830
     39 H           5.3629   -2.4145    1.4089 H       1  UNL1        0.0653
     40 H           2.7381   -1.3572    1.0852 H       1  UNL1        0.1659
     41 H           1.4382    2.6760   -0.3302 H       1  UNL1        0.0624
     42 H          -0.9696    3.2028   -0.2019 H       1  UNL1        0.0621
@<TRIPOS>BOND
     1     1     2    1
     2     2     3    1
     3     2     4    1
     4     4     5   ar
     5     5     6   ar
     6     6     7   ar
     7     7     8   ar
     8     8     9   ar
     9     9    10    1
    10    10    11   ar
    11    11    12   ar
    12    12    13    1
    13    13    14   ar
    14    14    15   ar
    15    15    16   ar
    16    16    17   ar
    17    17    18   ar
    18    18    19   ar
    19    19    20   ar
    20    20    21   ar
    21    12    22   ar
    22    22    23   ar
    23    23    24   ar
    24    24     2    1
    25     9     4   ar
    26    24    10   ar
    27    21    13   ar
    28    20    15   ar
    29     1    25    1
    30     1    26    1
    31     1    27    1
    32     3    28    1
    33     3    29    1
    34     3    30    1
    35     5    31    1
    36     6    32    1
    37     7    33    1
    38     8    34    1
    39    11    35    1
    40    14    36    1
    41    16    37    1
    42    18    38    1
    43    19    39    1
    44    21    40    1
    45    22    41    1
    46    23    42    1
