@<TRIPOS>MOLECULE
*****
 47 51 0 0 0
SMALL
GASTEIGER

@<TRIPOS>ATOM
      1 C          -4.8329    0.9813    1.7331 C.3     1  UNL1       -0.0517
      2 C          -4.2091    0.8978    0.3359 C.3     1  UNL1        0.0162
      3 C          -4.7312    2.0210   -0.5677 C.3     1  UNL1       -0.0517
      4 C          -4.4561   -0.4729   -0.2993 C.ar    1  UNL1       -0.0297
      5 C          -5.6649   -1.0750   -0.6206 C.ar    1  UNL1       -0.0572
      6 C          -5.6375   -2.3462   -1.2002 C.ar    1  UNL1       -0.0614
      7 C          -4.4174   -2.9947   -1.4473 C.ar    1  UNL1       -0.0612
      8 C          -3.2021   -2.3841   -1.1237 C.ar    1  UNL1       -0.0537
      9 C          -3.2272   -1.1226   -0.5509 C.ar    1  UNL1       -0.0136
     10 C          -2.1429   -0.2660   -0.1174 C.ar    1  UNL1       -0.0130
     11 C          -0.7706   -0.4631   -0.1619 C.ar    1  UNL1       -0.0460
     12 C           0.0838    0.5365    0.3363 C.ar    1  UNL1       -0.0158
     13 C           1.5353    0.3596    0.2888 C.ar    1  UNL1        0.0003
     14 C           2.2764    0.0530    1.4303 C.ar    1  UNL1       -0.0505
     15 C           3.6605   -0.1111    1.3409 C.ar    1  UNL1       -0.0336
     16 C           4.2984    0.0381    0.1082 C.ar    1  UNL1        0.0891
     17 C           5.7647   -0.1281   -0.0463 C.ar    1  UNL1        0.0891
     18 C           6.4092    0.0741   -1.2700 C.ar    1  UNL1       -0.0342
     19 C           7.7884   -0.1039   -1.3601 C.ar    1  UNL1       -0.0583
     20 C           8.5004   -0.4815   -0.2311 C.ar    1  UNL1       -0.0436
     21 C           7.8005   -0.6607    0.9480 C.ar    1  UNL1        0.0283
     22 N           6.4641   -0.4927    1.0655 N.ar    1  UNL1       -0.2534
     23 N           3.5912    0.3428   -1.0147 N.ar    1  UNL1       -0.2528
     24 C           2.2482    0.4916   -0.8992 C.ar    1  UNL1        0.0360
     25 C          -0.4733    1.7175    0.8752 C.ar    1  UNL1       -0.0537
     26 C          -1.8556    1.9205    0.9153 C.ar    1  UNL1       -0.0566
     27 C          -2.6801    0.9247    0.4144 C.ar    1  UNL1       -0.0297
     28 H          -4.4600    0.1870    2.3917 H       1  UNL1        0.0241
     29 H          -5.9238    0.8859    1.6892 H       1  UNL1        0.0241
     30 H          -4.6047    1.9393    2.2148 H       1  UNL1        0.0241
     31 H          -5.8199    1.9673   -0.6811 H       1  UNL1        0.0241
     32 H          -4.2940    1.9674   -1.5731 H       1  UNL1        0.0241
     33 H          -4.4898    3.0087   -0.1584 H       1  UNL1        0.0241
     34 H          -6.6102   -0.5771   -0.4298 H       1  UNL1        0.0621
     35 H          -6.5708   -2.8410   -1.4630 H       1  UNL1        0.0618
     36 H          -4.4185   -3.9846   -1.8956 H       1  UNL1        0.0618
     37 H          -2.2660   -2.8957   -1.3186 H       1  UNL1        0.0624
     38 H          -0.3605   -1.3815   -0.5722 H       1  UNL1        0.0630
     39 H           1.7845   -0.0699    2.3920 H       1  UNL1        0.0625
     40 H           4.2335   -0.3561    2.2315 H       1  UNL1        0.0640
     41 H           5.8420    0.3676   -2.1490 H       1  UNL1        0.0639
     42 H           8.2951    0.0478   -2.3084 H       1  UNL1        0.0619
     43 H           9.5732   -0.6317   -0.2686 H       1  UNL1        0.0633
     44 H           8.3113   -0.9550    1.8602 H       1  UNL1        0.0830
     45 H           1.7393    0.7327   -1.8292 H       1  UNL1        0.0836
     46 H           0.1837    2.4955    1.2626 H       1  UNL1        0.0624
     47 H          -2.2646    2.8373    1.3268 H       1  UNL1        0.0621
@<TRIPOS>BOND
     1     1     2    1
     2     2     3    1
     3     2     4    1
     4     4     5   ar
     5     5     6   ar
     6     6     7   ar
     7     7     8   ar
     8     8     9   ar
     9     9    10    1
    10    10    11   ar
    11    11    12   ar
    12    12    13    1
    13    13    14   ar
    14    14    15   ar
    15    15    16   ar
    16    16    17    1
    17    17    18   ar
    18    18    19   ar
    19    19    20   ar
    20    20    21   ar
    21    21    22   ar
    22    16    23   ar
    23    23    24   ar
    24    12    25   ar
    25    25    26   ar
    26    26    27   ar
    27    27     2    1
    28     9     4   ar
    29    27    10   ar
    30    24    13   ar
    31    22    17   ar
    32     1    28    1
    33     1    29    1
    34     1    30    1
    35     3    31    1
    36     3    32    1
    37     3    33    1
    38     5    34    1
    39     6    35    1
    40     7    36    1
    41     8    37    1
    42    11    38    1
    43    14    39    1
    44    15    40    1
    45    18    41    1
    46    19    42    1
    47    20    43    1
    48    21    44    1
    49    24    45    1
    50    25    46    1
    51    26    47    1
