@<TRIPOS>MOLECULE
*****
 40 46 0 0 0
SMALL
GASTEIGER

@<TRIPOS>ATOM
      1 SI          5.9821    2.1737    0.8419 Si      1  UNL1        0.0000
      2 C           6.4374    0.5993   -0.0588 C.2     1  UNL1        0.0000
      3 C           5.3355   -0.1020   -0.3868 C.ar    1  UNL1        0.0000
      4 C           5.3603   -1.3743   -1.0955 C.ar    1  UNL1        0.0000
      5 C           4.2097   -2.0129   -1.3859 C.ar    1  UNL1        0.0000
      6 C           2.9752   -1.4076   -0.9801 C.ar    1  UNL1        0.0000
      7 S           1.4727   -2.1473   -1.3068 S.2     1  UNL1        0.0000
      8 C           0.6182   -0.8310   -0.5272 C.ar    1  UNL1        0.0000
      9 C           1.4869    0.1242   -0.0450 C.ar    1  UNL1        0.0000
     10 S           0.6329    1.4396    0.7345 S.2     1  UNL1        0.0000
     11 C          -0.8702    0.6993    0.4071 C.ar    1  UNL1        0.0000
     12 C          -2.1010    1.3066    0.8173 C.ar    1  UNL1        0.0000
     13 C          -3.2736    0.6879    0.5335 C.ar    1  UNL1        0.0000
     14 C          -4.4703    1.3230    0.9928 C.ar    1  UNL1        0.0000
     15 C          -5.3619    0.9244    1.9760 C.ar    1  UNL1        0.0000
     16 N          -6.4550    1.7441    2.1845 N.ar    1  UNL1        0.0000
     17 C          -6.3921    2.7596    1.3536 C.ar    1  UNL1        0.0000
     18 S          -5.0479    2.7917    0.2922 S.2     1  UNL1        0.0000
     19 C          -3.2366   -0.6023   -0.1872 C.ar    1  UNL1        0.0000
     20 C          -4.3253   -1.3181   -0.5430 C.2     1  UNL1        0.0000
     21 SI         -3.8561   -2.8835   -1.4446 Si      1  UNL1        0.0000
     22 C          -2.0659   -2.3939   -1.2551 C.2     1  UNL1        0.0000
     23 C          -1.9407   -1.2224   -0.6030 C.ar    1  UNL1        0.0000
     24 C          -0.7481   -0.5030   -0.2682 C.ar    1  UNL1        0.0000
     25 C           2.8527   -0.2026   -0.3034 C.ar    1  UNL1        0.0000
     26 C           4.0458    0.5206    0.0316 C.ar    1  UNL1        0.0000
     27 C           4.1816    1.6947    0.6767 C.2     1  UNL1        0.0000
     28 H           6.4438    2.1693    2.2507 H       1  UNL1        0.0000
     29 H           6.3208    3.3870    0.0601 H       1  UNL1        0.0000
     30 H           7.4649    0.3415   -0.2598 H       1  UNL1        0.0000
     31 H           6.3170   -1.7965   -1.3839 H       1  UNL1        0.0000
     32 H           4.2133   -2.9612   -1.9133 H       1  UNL1        0.0000
     33 H          -2.0696    2.2485    1.3588 H       1  UNL1        0.0000
     34 H          -5.2559    0.0292    2.5777 H       1  UNL1        0.0000
     35 H          -7.1456    3.5361    1.3337 H       1  UNL1        0.0000
     36 H          -5.3615   -1.0745   -0.3685 H       1  UNL1        0.0000
     37 H          -4.1953   -4.1008   -0.6699 H       1  UNL1        0.0000
     38 H          -4.3005   -2.8752   -2.8585 H       1  UNL1        0.0000
     39 H          -1.2878   -3.0228   -1.6521 H       1  UNL1        0.0000
     40 H           3.4103    2.3316    1.0739 H       1  UNL1        0.0000
@<TRIPOS>BOND
     1     1     2    1
     2     2     3    2
     3     3     4   ar
     4     4     5   ar
     5     5     6   ar
     6     6     7   ar
     7     7     8   ar
     8     8     9   ar
     9     9    10   ar
    10    10    11   ar
    11    11    12   ar
    12    12    13   ar
    13    13    14    1
    14    14    15   ar
    15    15    16   ar
    16    16    17   ar
    17    17    18   ar
    18    13    19   ar
    19    19    20    2
    20    20    21    1
    21    21    22    1
    22    22    23    2
    23    23    24   ar
    24     9    25   ar
    25    25    26   ar
    26    26    27    2
    27    27     1    1
    28    26     3   ar
    29    25     6   ar
    30    24     8   ar
    31    24    11   ar
    32    18    14   ar
    33    23    19   ar
    34     1    28    1
    35     1    29    1
    36     2    30    1
    37     4    31    1
    38     5    32    1
    39    12    33    1
    40    15    34    1
    41    17    35    1
    42    20    36    1
    43    21    37    1
    44    21    38    1
    45    22    39    1
    46    27    40    1
