@<TRIPOS>MOLECULE
*****
 47 51 0 0 0
SMALL
GASTEIGER

@<TRIPOS>ATOM
      1 C          -4.6035   -2.0563   -0.9676 C.3     1  UNL1       -0.0517
      2 C          -4.0807   -1.1710    0.1693 C.3     1  UNL1        0.0162
      3 C          -4.6295   -1.6336    1.5237 C.3     1  UNL1       -0.0517
      4 C          -4.4140    0.3014   -0.0840 C.ar    1  UNL1       -0.0297
      5 C          -5.6603    0.9020   -0.1981 C.ar    1  UNL1       -0.0572
      6 C          -5.7122    2.2775   -0.4316 C.ar    1  UNL1       -0.0614
      7 C          -4.5330    3.0308   -0.5476 C.ar    1  UNL1       -0.0612
      8 C          -3.2797    2.4218   -0.4321 C.ar    1  UNL1       -0.0537
      9 C          -3.2261    1.0566   -0.2005 C.ar    1  UNL1       -0.0136
     10 C          -2.0885    0.1758   -0.0404 C.ar    1  UNL1       -0.0130
     11 C          -0.7288    0.4508   -0.0743 C.ar    1  UNL1       -0.0460
     12 C           0.1954   -0.5942    0.1142 C.ar    1  UNL1       -0.0173
     13 C           1.6432   -0.3289    0.0828 C.ar    1  UNL1       -0.0178
     14 C           2.2396    0.3069   -1.0133 C.ar    1  UNL1       -0.0534
     15 C           3.6174    0.5602   -1.0394 C.ar    1  UNL1       -0.0519
     16 C           4.4573    0.1864    0.0242 C.ar    1  UNL1        0.0019
     17 C           5.9076    0.4599   -0.0296 C.ar    1  UNL1        0.0890
     18 C           6.8672   -0.3158    0.6231 C.ar    1  UNL1        0.0535
     19 N           8.2013   -0.0623    0.5774 N.ar    1  UNL1       -0.2596
     20 C           8.5544    1.0098   -0.1616 C.ar    1  UNL1        0.0457
     21 C           7.6226    1.7867   -0.8242 C.ar    1  UNL1        0.0464
     22 N           6.2944    1.5305   -0.7762 N.ar    1  UNL1       -0.2520
     23 C           3.8498   -0.4422    1.1247 C.ar    1  UNL1       -0.0519
     24 C           2.4709   -0.6971    1.1519 C.ar    1  UNL1       -0.0534
     25 C          -0.2917   -1.9043    0.3341 C.ar    1  UNL1       -0.0537
     26 C          -1.6615   -2.1848    0.3678 C.ar    1  UNL1       -0.0566
     27 C          -2.5502   -1.1384    0.1797 C.ar    1  UNL1       -0.0297
     28 H          -4.3069   -3.1021   -0.8276 H       1  UNL1        0.0241
     29 H          -5.6978   -2.0279   -1.0245 H       1  UNL1        0.0241
     30 H          -4.2167   -1.7340   -1.9422 H       1  UNL1        0.0241
     31 H          -4.2614   -1.0066    2.3451 H       1  UNL1        0.0241
     32 H          -4.3337   -2.6661    1.7425 H       1  UNL1        0.0241
     33 H          -5.7246   -1.5918    1.5458 H       1  UNL1        0.0241
     34 H          -6.5744    0.3243   -0.1091 H       1  UNL1        0.0621
     35 H          -6.6760    2.7726   -0.5249 H       1  UNL1        0.0618
     36 H          -4.5960    4.1012   -0.7291 H       1  UNL1        0.0618
     37 H          -2.3754    3.0138   -0.5229 H       1  UNL1        0.0624
     38 H          -0.3811    1.4672   -0.2341 H       1  UNL1        0.0630
     39 H           1.6366    0.6059   -1.8686 H       1  UNL1        0.0624
     40 H           4.0385    1.0566   -1.9131 H       1  UNL1        0.0624
     41 H           6.5976   -1.1913    1.2035 H       1  UNL1        0.0851
     42 H           9.6147    1.2292   -0.2097 H       1  UNL1        0.0845
     43 H           7.9186    2.6445   -1.4170 H       1  UNL1        0.0845
     44 H           4.4331   -0.7274    1.9973 H       1  UNL1        0.0624
     45 H           2.0426   -1.1730    2.0324 H       1  UNL1        0.0624
     46 H           0.4113   -2.7248    0.4692 H       1  UNL1        0.0624
     47 H          -2.0105   -3.1986    0.5342 H       1  UNL1        0.0621
@<TRIPOS>BOND
     1     1     2    1
     2     2     3    1
     3     2     4    1
     4     4     5   ar
     5     5     6   ar
     6     6     7   ar
     7     7     8   ar
     8     8     9   ar
     9     9    10    1
    10    10    11   ar
    11    11    12   ar
    12    12    13    1
    13    13    14   ar
    14    14    15   ar
    15    15    16   ar
    16    16    17    1
    17    17    18   ar
    18    18    19   ar
    19    19    20   ar
    20    20    21   ar
    21    21    22   ar
    22    16    23   ar
    23    23    24   ar
    24    12    25   ar
    25    25    26   ar
    26    26    27   ar
    27    27     2    1
    28     9     4   ar
    29    27    10   ar
    30    24    13   ar
    31    22    17   ar
    32     1    28    1
    33     1    29    1
    34     1    30    1
    35     3    31    1
    36     3    32    1
    37     3    33    1
    38     5    34    1
    39     6    35    1
    40     7    36    1
    41     8    37    1
    42    11    38    1
    43    14    39    1
    44    15    40    1
    45    18    41    1
    46    20    42    1
    47    21    43    1
    48    23    44    1
    49    24    45    1
    50    25    46    1
    51    26    47    1
