@<TRIPOS>MOLECULE
*****
 45 49 0 0 0
SMALL
GASTEIGER

@<TRIPOS>ATOM
      1 C           3.9457    2.3312   -0.0996 C.3     1  UNL1       -0.0517
      2 C           3.5207    0.9520   -0.6163 C.3     1  UNL1        0.0162
      3 C           4.1829    0.6410   -1.9633 C.3     1  UNL1       -0.0517
      4 C           3.8303   -0.1386    0.4123 C.ar    1  UNL1       -0.0297
      5 C           5.0621   -0.5275    0.9206 C.ar    1  UNL1       -0.0572
      6 C           5.0936   -1.5606    1.8591 C.ar    1  UNL1       -0.0614
      7 C           3.9086   -2.1882    2.2756 C.ar    1  UNL1       -0.0612
      8 C           2.6699   -1.7933    1.7612 C.ar    1  UNL1       -0.0537
      9 C           2.6366   -0.7675    0.8300 C.ar    1  UNL1       -0.0136
     10 C           1.5171   -0.1618    0.1404 C.ar    1  UNL1       -0.0130
     11 C           0.1594   -0.4372    0.2185 C.ar    1  UNL1       -0.0460
     12 C          -0.7440    0.3022   -0.5680 C.ar    1  UNL1       -0.0172
     13 C          -2.1899    0.0327   -0.5013 C.ar    1  UNL1       -0.0159
     14 C          -2.9146   -0.2981   -1.6600 C.ar    1  UNL1       -0.0532
     15 C          -4.2845   -0.5631   -1.6004 C.ar    1  UNL1       -0.0484
     16 C          -4.9453   -0.4927   -0.3731 C.ar    1  UNL1        0.0450
     17 C          -6.4020   -0.7734   -0.2855 C.ar    1  UNL1        0.1894
     18 O          -7.0652   -1.0797   -1.2698 O.2     1  UNL1       -0.2872
     19 C          -7.0436   -0.6610    1.0479 C.ar    1  UNL1        0.0017
     20 C          -6.2772   -0.3385    2.0952 C.ar    1  UNL1        0.0058
     21 N          -4.9282   -0.1188    2.0297 N.ar    1  UNL1       -0.3604
     22 C          -4.2532   -0.1491    0.7999 C.ar    1  UNL1        0.0507
     23 C          -2.8780    0.0968    0.7259 C.ar    1  UNL1       -0.0300
     24 C          -0.2398    1.3107   -1.4225 C.ar    1  UNL1       -0.0537
     25 C           1.1279    1.5908   -1.5026 C.ar    1  UNL1       -0.0566
     26 C           1.9965    0.8497   -0.7174 C.ar    1  UNL1       -0.0297
     27 H           3.6626    3.1246   -0.8010 H       1  UNL1        0.0241
     28 H           3.4772    2.5642    0.8645 H       1  UNL1        0.0241
     29 H           5.0311    2.3872    0.0421 H       1  UNL1        0.0241
     30 H           3.9074    1.3810   -2.7236 H       1  UNL1        0.0241
     31 H           3.8854   -0.3444   -2.3427 H       1  UNL1        0.0241
     32 H           5.2759    0.6433   -1.8807 H       1  UNL1        0.0241
     33 H           5.9808   -0.0465    0.6012 H       1  UNL1        0.0621
     34 H           6.0459   -1.8849    2.2723 H       1  UNL1        0.0618
     35 H           3.9561   -2.9920    3.0066 H       1  UNL1        0.0618
     36 H           1.7615   -2.2867    2.0893 H       1  UNL1        0.0624
     37 H          -0.2006   -1.2256    0.8728 H       1  UNL1        0.0630
     38 H          -2.4074   -0.3673   -2.6210 H       1  UNL1        0.0624
     39 H          -4.8296   -0.8270   -2.5037 H       1  UNL1        0.0625
     40 H          -8.1077   -0.8385    1.1134 H       1  UNL1        0.0670
     41 H          -6.7006   -0.2330    3.0901 H       1  UNL1        0.0808
     42 H          -4.4563    0.2673    2.8390 H       1  UNL1        0.1653
     43 H          -2.3304    0.3522    1.6305 H       1  UNL1        0.0644
     44 H          -0.9279    1.8968   -2.0300 H       1  UNL1        0.0624
     45 H           1.4909    2.3712   -2.1635 H       1  UNL1        0.0621
@<TRIPOS>BOND
     1     1     2    1
     2     2     3    1
     3     2     4    1
     4     4     5   ar
     5     5     6   ar
     6     6     7   ar
     7     7     8   ar
     8     8     9   ar
     9     9    10    1
    10    10    11   ar
    11    11    12   ar
    12    12    13    1
    13    13    14   ar
    14    14    15   ar
    15    15    16   ar
    16    16    17   ar
    17    17    18    2
    18    17    19   ar
    19    19    20   ar
    20    20    21   ar
    21    21    22   ar
    22    22    23   ar
    23    12    24   ar
    24    24    25   ar
    25    25    26   ar
    26    26     2    1
    27     9     4   ar
    28    26    10   ar
    29    23    13   ar
    30    22    16   ar
    31     1    27    1
    32     1    28    1
    33     1    29    1
    34     3    30    1
    35     3    31    1
    36     3    32    1
    37     5    33    1
    38     6    34    1
    39     7    35    1
    40     8    36    1
    41    11    37    1
    42    14    38    1
    43    15    39    1
    44    19    40    1
    45    20    41    1
    46    21    42    1
    47    23    43    1
    48    24    44    1
    49    25    45    1
