@<TRIPOS>MOLECULE
*****
 48 53 0 0 0
SMALL
GASTEIGER

@<TRIPOS>ATOM
      1 C          -4.8729   -1.6686   -0.9753 C.3     1  UNL1       -0.0517
      2 C          -4.2197   -0.9088    0.1848 C.3     1  UNL1        0.0162
      3 C          -4.6805   -1.4663    1.5364 C.3     1  UNL1       -0.0517
      4 C          -4.5017    0.5924    0.0854 C.ar    1  UNL1       -0.0297
      5 C          -5.7231    1.2507    0.1268 C.ar    1  UNL1       -0.0572
      6 C          -5.7280    2.6424    0.0157 C.ar    1  UNL1       -0.0614
      7 C          -4.5272    3.3547   -0.1338 C.ar    1  UNL1       -0.0612
      8 C          -3.2991    2.6876   -0.1751 C.ar    1  UNL1       -0.0537
      9 C          -3.2923    1.3063   -0.0653 C.ar    1  UNL1       -0.0136
     10 C          -2.1887    0.3695   -0.0757 C.ar    1  UNL1       -0.0130
     11 C          -0.8246    0.5911   -0.1996 C.ar    1  UNL1       -0.0460
     12 C           0.0598   -0.5037   -0.1777 C.ar    1  UNL1       -0.0172
     13 C           1.5123   -0.2962   -0.3075 C.ar    1  UNL1       -0.0159
     14 C           2.0420    0.3603   -1.4289 C.ar    1  UNL1       -0.0533
     15 C           3.4206    0.5710   -1.5778 C.ar    1  UNL1       -0.0514
     16 C           4.3015    0.1159   -0.5782 C.ar    1  UNL1        0.0090
     17 C           3.7646   -0.5354    0.5343 C.ar    1  UNL1        0.0492
     18 C           2.3891   -0.7539    0.6939 C.ar    1  UNL1       -0.0300
     19 N           4.8183   -0.8719    1.3533 N.ar    1  UNL1       -0.3390
     20 C           6.0001   -0.4652    0.8036 C.ar    1  UNL1        0.1391
     21 N           7.2063   -0.6550    1.3701 N.ar    1  UNL1       -0.2375
     22 C           8.2194   -0.1579    0.6241 C.ar    1  UNL1        0.0299
     23 C           8.0857    0.4867   -0.5992 C.ar    1  UNL1       -0.0429
     24 C           6.8101    0.6558   -1.1396 C.ar    1  UNL1       -0.0490
     25 C           5.7194    0.1578   -0.4060 C.ar    1  UNL1        0.0264
     26 C          -0.4692   -1.8074   -0.0293 C.ar    1  UNL1       -0.0537
     27 C          -1.8435   -2.0338    0.0947 C.ar    1  UNL1       -0.0566
     28 C          -2.6934   -0.9394    0.0703 C.ar    1  UNL1       -0.0297
     29 H          -4.5499   -1.2777   -1.9480 H       1  UNL1        0.0241
     30 H          -4.6162   -2.7339   -0.9493 H       1  UNL1        0.0241
     31 H          -5.9656   -1.5910   -0.9381 H       1  UNL1        0.0241
     32 H          -4.2187   -0.9295    2.3742 H       1  UNL1        0.0241
     33 H          -4.4177   -2.5252    1.6417 H       1  UNL1        0.0241
     34 H          -5.7671   -1.3822    1.6531 H       1  UNL1        0.0241
     35 H          -6.6537    0.7049    0.2426 H       1  UNL1        0.0621
     36 H          -6.6715    3.1825    0.0454 H       1  UNL1        0.0618
     37 H          -4.5535    4.4386   -0.2180 H       1  UNL1        0.0618
     38 H          -2.3777    3.2482   -0.2902 H       1  UNL1        0.0624
     39 H          -0.4413    1.6020   -0.3019 H       1  UNL1        0.0630
     40 H           1.3760    0.7102   -2.2162 H       1  UNL1        0.0624
     41 H           3.8006    1.0792   -2.4590 H       1  UNL1        0.0624
     42 H           2.0071   -1.2555    1.5789 H       1  UNL1        0.0644
     43 H           4.7512   -1.3511    2.2374 H       1  UNL1        0.1673
     44 H           9.2066   -0.2977    1.0591 H       1  UNL1        0.0830
     45 H           8.9612    0.8524   -1.1248 H       1  UNL1        0.0633
     46 H           6.6670    1.1540   -2.0922 H       1  UNL1        0.0625
     47 H           0.2039   -2.6634   -0.0225 H       1  UNL1        0.0624
     48 H          -2.2261   -3.0433    0.2035 H       1  UNL1        0.0621
@<TRIPOS>BOND
     1     1     2    1
     2     2     3    1
     3     2     4    1
     4     4     5   ar
     5     5     6   ar
     6     6     7   ar
     7     7     8   ar
     8     8     9   ar
     9     9    10    1
    10    10    11   ar
    11    11    12   ar
    12    12    13    1
    13    13    14   ar
    14    14    15   ar
    15    15    16   ar
    16    16    17   ar
    17    17    18   ar
    18    17    19   ar
    19    19    20   ar
    20    20    21   ar
    21    21    22   ar
    22    22    23   ar
    23    23    24   ar
    24    24    25   ar
    25    12    26   ar
    26    26    27   ar
    27    27    28   ar
    28    28     2    1
    29     9     4   ar
    30    28    10   ar
    31    18    13   ar
    32    25    20   ar
    33    25    16   ar
    34     1    29    1
    35     1    30    1
    36     1    31    1
    37     3    32    1
    38     3    33    1
    39     3    34    1
    40     5    35    1
    41     6    36    1
    42     7    37    1
    43     8    38    1
    44    11    39    1
    45    14    40    1
    46    15    41    1
    47    18    42    1
    48    19    43    1
    49    22    44    1
    50    23    45    1
    51    24    46    1
    52    26    47    1
    53    27    48    1
