@<TRIPOS>MOLECULE
*****
 45 49 0 0 0
SMALL
GASTEIGER

@<TRIPOS>ATOM
      1 C          -4.1165    1.5156   -1.5828 C.3     1  UNL1       -0.0517
      2 C          -3.5248    1.0793   -0.2378 C.3     1  UNL1        0.0162
      3 C          -3.9458    2.0348    0.8845 C.3     1  UNL1       -0.0517
      4 C          -3.9177   -0.3627    0.0928 C.ar    1  UNL1       -0.0297
      5 C          -5.1850   -0.8926    0.2925 C.ar    1  UNL1       -0.0572
      6 C          -5.2938   -2.2529    0.5871 C.ar    1  UNL1       -0.0614
      7 C          -4.1493   -3.0612    0.6785 C.ar    1  UNL1       -0.0612
      8 C          -2.8745   -2.5233    0.4767 C.ar    1  UNL1       -0.0537
      9 C          -2.7645   -1.1733    0.1838 C.ar    1  UNL1       -0.0136
     10 C          -1.5941   -0.3598   -0.0694 C.ar    1  UNL1       -0.0130
     11 C          -0.2495   -0.7032   -0.0897 C.ar    1  UNL1       -0.0460
     12 C           0.7161    0.2846   -0.3633 C.ar    1  UNL1       -0.0173
     13 C           2.1499   -0.0542   -0.3921 C.ar    1  UNL1       -0.0172
     14 C           2.6265   -1.1155   -1.1813 C.ar    1  UNL1       -0.0533
     15 C           3.9861   -1.4422   -1.2108 C.ar    1  UNL1       -0.0497
     16 C           4.8966   -0.7069   -0.4469 C.ar    1  UNL1        0.0325
     17 C           4.4455    0.3503    0.3403 C.ar    1  UNL1        0.0330
     18 C           3.0809    0.6738    0.3685 C.ar    1  UNL1       -0.0425
     19 C           5.3970    1.1376    1.1493 C.2     1  UNL1        0.1869
     20 O           5.0344    2.0780    1.8436 O.2     1  UNL1       -0.2873
     21 C           6.8228    0.7588    1.0971 C.2     1  UNL1       -0.0107
     22 C           7.2541   -0.2552    0.3436 C.2     1  UNL1       -0.0107
     23 C           6.3302   -1.0578   -0.4813 C.2     1  UNL1        0.1869
     24 O           6.7549   -1.9802   -1.1644 O.2     1  UNL1       -0.2873
     25 C           0.2834    1.6092   -0.6104 C.ar    1  UNL1       -0.0537
     26 C          -1.0709    1.9582   -0.5908 C.ar    1  UNL1       -0.0566
     27 C          -2.0002    0.9669   -0.3197 C.ar    1  UNL1       -0.0297
     28 H          -3.7809    2.5220   -1.8587 H       1  UNL1        0.0241
     29 H          -5.2120    1.5298   -1.5510 H       1  UNL1        0.0241
     30 H          -3.8213    0.8384   -2.3937 H       1  UNL1        0.0241
     31 H          -5.0359    2.0653    0.9946 H       1  UNL1        0.0241
     32 H          -3.6049    3.0576    0.6866 H       1  UNL1        0.0241
     33 H          -3.5274    1.7318    1.8522 H       1  UNL1        0.0241
     34 H          -6.0725   -0.2722    0.2234 H       1  UNL1        0.0621
     35 H          -6.2752   -2.6929    0.7483 H       1  UNL1        0.0618
     36 H          -4.2567   -4.1184    0.9098 H       1  UNL1        0.0618
     37 H          -1.9979   -3.1576    0.5508 H       1  UNL1        0.0624
     38 H           0.0525   -1.7257    0.1166 H       1  UNL1        0.0630
     39 H           1.9357   -1.6936   -1.7943 H       1  UNL1        0.0624
     40 H           4.3277   -2.2678   -1.8330 H       1  UNL1        0.0625
     41 H           2.7404    1.4949    0.9996 H       1  UNL1        0.0631
     42 H           7.4991    1.3505    1.7034 H       1  UNL1        0.0657
     43 H           8.3007   -0.5346    0.3029 H       1  UNL1        0.0657
     44 H           1.0143    2.3853   -0.8329 H       1  UNL1        0.0624
     45 H          -1.3773    2.9809   -0.7853 H       1  UNL1        0.0621
@<TRIPOS>BOND
     1     1     2    1
     2     2     3    1
     3     2     4    1
     4     4     5   ar
     5     5     6   ar
     6     6     7   ar
     7     7     8   ar
     8     8     9   ar
     9     9    10    1
    10    10    11   ar
    11    11    12   ar
    12    12    13    1
    13    13    14   ar
    14    14    15   ar
    15    15    16   ar
    16    16    17   ar
    17    17    18   ar
    18    17    19    1
    19    19    20    2
    20    19    21    1
    21    21    22    2
    22    22    23    1
    23    23    24    2
    24    12    25   ar
    25    25    26   ar
    26    26    27   ar
    27    27     2    1
    28     9     4   ar
    29    27    10   ar
    30    18    13   ar
    31    23    16    1
    32     1    28    1
    33     1    29    1
    34     1    30    1
    35     3    31    1
    36     3    32    1
    37     3    33    1
    38     5    34    1
    39     6    35    1
    40     7    36    1
    41     8    37    1
    42    11    38    1
    43    14    39    1
    44    15    40    1
    45    18    41    1
    46    21    42    1
    47    22    43    1
    48    25    44    1
    49    26    45    1
