@<TRIPOS>MOLECULE
*****
 43 47 0 0 0
SMALL
GASTEIGER

@<TRIPOS>ATOM
      1 C          -3.5706    0.9069   -2.2558 C.3     1  UNL1       -0.0517
      2 C          -3.0920    1.1520   -0.8203 C.3     1  UNL1        0.0162
      3 C          -3.5792    2.5098   -0.3020 C.3     1  UNL1       -0.0517
      4 C          -3.5365    0.0187    0.1075 C.ar    1  UNL1       -0.0297
      5 C          -4.8253   -0.3825    0.4313 C.ar    1  UNL1       -0.0572
      6 C          -4.9823   -1.4559    1.3101 C.ar    1  UNL1       -0.0614
      7 C          -3.8638   -2.1106    1.8504 C.ar    1  UNL1       -0.0612
      8 C          -2.5673   -1.7032    1.5215 C.ar    1  UNL1       -0.0537
      9 C          -2.4094   -0.6378    0.6496 C.ar    1  UNL1       -0.0136
     10 C          -1.2076   -0.0115    0.1404 C.ar    1  UNL1       -0.0130
     11 C           0.1275   -0.3016    0.3834 C.ar    1  UNL1       -0.0460
     12 C           1.1293    0.4666   -0.2401 C.ar    1  UNL1       -0.0173
     13 C           2.5545    0.1793    0.0007 C.ar    1  UNL1       -0.0171
     14 C           3.4335    1.2075    0.4417 C.ar    1  UNL1       -0.0533
     15 C           4.7935    0.9691    0.6798 C.ar    1  UNL1       -0.0483
     16 C           5.2509   -0.3135    0.4686 C.ar    1  UNL1        0.0492
     17 C           4.4118   -1.3272    0.0417 C.ar    1  UNL1        0.0498
     18 C           3.0677   -1.1164   -0.2001 C.ar    1  UNL1       -0.0412
     19 C           5.2170   -2.5421   -0.0760 C.2     1  UNL1        0.2513
     20 O           4.8056   -3.6302   -0.4231 O.2     1  UNL1       -0.2698
     21 N           6.4848   -2.1982    0.2804 N.am    1  UNL1       -0.2483
     22 C           6.5884   -0.8847    0.6213 C.2     1  UNL1        0.2512
     23 O           7.5765   -0.2795    0.9834 O.2     1  UNL1       -0.2698
     24 C           0.7430    1.5189   -1.1037 C.ar    1  UNL1       -0.0537
     25 C          -0.6018    1.8131   -1.3507 C.ar    1  UNL1       -0.0566
     26 C          -1.5679    1.0427   -0.7239 C.ar    1  UNL1       -0.0297
     27 H          -3.2271   -0.0626   -2.6370 H       1  UNL1        0.0241
     28 H          -4.6649    0.9139   -2.3182 H       1  UNL1        0.0241
     29 H          -3.1957    1.6782   -2.9385 H       1  UNL1        0.0241
     30 H          -3.2421    2.6956    0.7252 H       1  UNL1        0.0241
     31 H          -4.6738    2.5676   -0.3025 H       1  UNL1        0.0241
     32 H          -3.2046    3.3317   -0.9229 H       1  UNL1        0.0241
     33 H          -5.6930    0.1197    0.0162 H       1  UNL1        0.0621
     34 H          -5.9814   -1.7904    1.5799 H       1  UNL1        0.0618
     35 H          -4.0088   -2.9450    2.5326 H       1  UNL1        0.0618
     36 H          -1.7113   -2.2174    1.9450 H       1  UNL1        0.0624
     37 H           0.3931   -1.1097    1.0586 H       1  UNL1        0.0630
     38 H           3.0430    2.2109    0.6135 H       1  UNL1        0.0624
     39 H           5.4586    1.7565    1.0189 H       1  UNL1        0.0625
     40 H           2.4394   -1.9330   -0.5452 H       1  UNL1        0.0631
     41 H           7.2578   -2.8439    0.2944 H       1  UNL1        0.1581
     42 H           1.5041    2.1150   -1.6049 H       1  UNL1        0.0624
     43 H          -0.8734    2.6231   -2.0199 H       1  UNL1        0.0621
@<TRIPOS>BOND
     1     1     2    1
     2     2     3    1
     3     2     4    1
     4     4     5   ar
     5     5     6   ar
     6     6     7   ar
     7     7     8   ar
     8     8     9   ar
     9     9    10    1
    10    10    11   ar
    11    11    12   ar
    12    12    13    1
    13    13    14   ar
    14    14    15   ar
    15    15    16   ar
    16    16    17   ar
    17    17    18   ar
    18    17    19    1
    19    19    20    2
    20    19    21   am
    21    21    22   am
    22    22    23    2
    23    12    24   ar
    24    24    25   ar
    25    25    26   ar
    26    26     2    1
    27     9     4   ar
    28    26    10   ar
    29    18    13   ar
    30    22    16    1
    31     1    27    1
    32     1    28    1
    33     1    29    1
    34     3    30    1
    35     3    31    1
    36     3    32    1
    37     5    33    1
    38     6    34    1
    39     7    35    1
    40     8    36    1
    41    11    37    1
    42    14    38    1
    43    15    39    1
    44    18    40    1
    45    21    41    1
    46    24    42    1
    47    25    43    1
