@<TRIPOS>MOLECULE
*****
 48 53 0 0 0
SMALL
GASTEIGER

@<TRIPOS>ATOM
      1 C          -4.8241   -0.8102    2.0005 C.3     1  UNL1       -0.0517
      2 C          -4.3345   -0.7643    0.5486 C.3     1  UNL1        0.0162
      3 C          -5.0159   -1.8467   -0.2963 C.3     1  UNL1       -0.0517
      4 C          -4.5503    0.6236   -0.0597 C.ar    1  UNL1       -0.0297
      5 C          -5.7421    1.3042   -0.2680 C.ar    1  UNL1       -0.0572
      6 C          -5.6859    2.5740   -0.8457 C.ar    1  UNL1       -0.0614
      7 C          -4.4545    3.1449   -1.2056 C.ar    1  UNL1       -0.0612
      8 C          -3.2564    2.4559   -0.9939 C.ar    1  UNL1       -0.0537
      9 C          -3.3102    1.1955   -0.4204 C.ar    1  UNL1       -0.0136
     10 C          -2.2484    0.2688   -0.0897 C.ar    1  UNL1       -0.0130
     11 C          -0.8752    0.3818   -0.2539 C.ar    1  UNL1       -0.0460
     12 C          -0.0389   -0.6755    0.1518 C.ar    1  UNL1       -0.0173
     13 C           1.4218   -0.5801   -0.0108 C.ar    1  UNL1       -0.0168
     14 C           2.1292   -1.5512   -0.7228 C.ar    1  UNL1       -0.0534
     15 C           3.5180   -1.4675   -0.8842 C.ar    1  UNL1       -0.0524
     16 C           4.2491   -0.3895   -0.3252 C.ar    1  UNL1       -0.0031
     17 C           3.5352    0.5747    0.3841 C.ar    1  UNL1        0.0211
     18 C           2.1357    0.4936    0.5472 C.ar    1  UNL1       -0.0397
     19 S           4.5682    1.8016    0.9922 S.2     1  UNL1       -0.0882
     20 C           5.9746    1.0807    0.3261 C.ar    1  UNL1        0.0205
     21 C           7.2960    1.5620    0.4233 C.ar    1  UNL1       -0.0474
     22 C           8.3271    0.8431   -0.1839 C.ar    1  UNL1       -0.0607
     23 C           8.0552   -0.3288   -0.8732 C.ar    1  UNL1       -0.0611
     24 C           6.7427   -0.8017   -0.9663 C.ar    1  UNL1       -0.0529
     25 C           5.6701   -0.0951   -0.3606 C.ar    1  UNL1       -0.0031
     26 C          -0.6259   -1.8309    0.7197 C.ar    1  UNL1       -0.0537
     27 C          -2.0094   -1.9472    0.8871 C.ar    1  UNL1       -0.0566
     28 C          -2.8106   -0.8926    0.4793 C.ar    1  UNL1       -0.0297
     29 H          -4.3425   -0.0394    2.6146 H       1  UNL1        0.0241
     30 H          -4.6082   -1.7798    2.4639 H       1  UNL1        0.0241
     31 H          -5.9065   -0.6483    2.0618 H       1  UNL1        0.0241
     32 H          -4.6725   -1.8230   -1.3379 H       1  UNL1        0.0241
     33 H          -4.8060   -2.8490    0.0945 H       1  UNL1        0.0241
     34 H          -6.1043   -1.7177   -0.3077 H       1  UNL1        0.0241
     35 H          -6.6961    0.8674    0.0082 H       1  UNL1        0.0621
     36 H          -6.6051    3.1285   -1.0198 H       1  UNL1        0.0618
     37 H          -4.4332    4.1352   -1.6545 H       1  UNL1        0.0618
     38 H          -2.3111    2.9068   -1.2761 H       1  UNL1        0.0624
     39 H          -0.4506    1.2755   -0.7018 H       1  UNL1        0.0630
     40 H           1.6010   -2.3881   -1.1767 H       1  UNL1        0.0624
     41 H           4.0344   -2.2401   -1.4483 H       1  UNL1        0.0624
     42 H           1.6159    1.2608    1.1171 H       1  UNL1        0.0635
     43 H           7.5111    2.4801    0.9631 H       1  UNL1        0.0629
     44 H           9.3495    1.2070   -0.1141 H       1  UNL1        0.0618
     45 H           8.8633   -0.8836   -1.3437 H       1  UNL1        0.0618
     46 H           6.5466   -1.7221   -1.5104 H       1  UNL1        0.0624
     47 H           0.0096   -2.6514    1.0494 H       1  UNL1        0.0624
     48 H          -2.4358   -2.8419    1.3288 H       1  UNL1        0.0621
@<TRIPOS>BOND
     1     1     2    1
     2     2     3    1
     3     2     4    1
     4     4     5   ar
     5     5     6   ar
     6     6     7   ar
     7     7     8   ar
     8     8     9   ar
     9     9    10    1
    10    10    11   ar
    11    11    12   ar
    12    12    13    1
    13    13    14   ar
    14    14    15   ar
    15    15    16   ar
    16    16    17   ar
    17    17    18   ar
    18    17    19   ar
    19    19    20   ar
    20    20    21   ar
    21    21    22   ar
    22    22    23   ar
    23    23    24   ar
    24    24    25   ar
    25    12    26   ar
    26    26    27   ar
    27    27    28   ar
    28    28     2    1
    29     9     4   ar
    30    28    10   ar
    31    18    13   ar
    32    25    20   ar
    33    25    16   ar
    34     1    29    1
    35     1    30    1
    36     1    31    1
    37     3    32    1
    38     3    33    1
    39     3    34    1
    40     5    35    1
    41     6    36    1
    42     7    37    1
    43     8    38    1
    44    11    39    1
    45    14    40    1
    46    15    41    1
    47    18    42    1
    48    21    43    1
    49    22    44    1
    50    23    45    1
    51    24    46    1
    52    26    47    1
    53    27    48    1
