@<TRIPOS>MOLECULE
*****
 43 47 0 0 0
SMALL
GASTEIGER

@<TRIPOS>ATOM
      1 C          -3.9194   -1.9633    0.6126 C.3     1  UNL1       -0.0517
      2 C          -3.2544   -1.0435   -0.4177 C.3     1  UNL1        0.0162
      3 C          -3.6942   -1.4033   -1.8414 C.3     1  UNL1       -0.0517
      4 C          -3.5449    0.4272   -0.1087 C.ar    1  UNL1       -0.0297
      5 C          -4.7690    1.0808   -0.0713 C.ar    1  UNL1       -0.0572
      6 C          -4.7821    2.4423    0.2377 C.ar    1  UNL1       -0.0614
      7 C          -3.5868    3.1296    0.5031 C.ar    1  UNL1       -0.0612
      8 C          -2.3560    2.4674    0.4642 C.ar    1  UNL1       -0.0537
      9 C          -2.3409    1.1160    0.1578 C.ar    1  UNL1       -0.0136
     10 C          -1.2329    0.1909    0.0476 C.ar    1  UNL1       -0.0130
     11 C           0.1288    0.3970    0.2186 C.ar    1  UNL1       -0.0460
     12 C           1.0200   -0.6808    0.0563 C.ar    1  UNL1       -0.0172
     13 C           2.4694   -0.4886    0.2328 C.ar    1  UNL1       -0.0157
     14 C           3.2061   -1.2955    1.1066 C.ar    1  UNL1       -0.0519
     15 C           4.5809   -1.1012    1.2665 C.ar    1  UNL1       -0.0337
     16 C           5.2549   -0.1096    0.5695 C.ar    1  UNL1        0.0892
     17 N           6.5816    0.0471    0.7505 N.ar    1  UNL1       -0.2519
     18 C           7.1710    1.0317    0.0391 C.ar    1  UNL1        0.0464
     19 C           6.4633    1.8385   -0.8274 C.ar    1  UNL1        0.0464
     20 N           5.1345    1.6966   -1.0210 N.ar    1  UNL1       -0.2519
     21 C           4.5268    0.7181   -0.3197 C.ar    1  UNL1        0.0897
     22 C           3.1593    0.5134   -0.4693 C.ar    1  UNL1       -0.0265
     23 C           0.4975   -1.9522   -0.2801 C.ar    1  UNL1       -0.0537
     24 C          -0.8742   -2.1628   -0.4537 C.ar    1  UNL1       -0.0566
     25 C          -1.7296   -1.0856   -0.2873 C.ar    1  UNL1       -0.0297
     26 H          -5.0119   -1.8844    0.5716 H       1  UNL1        0.0241
     27 H          -3.6572   -3.0132    0.4382 H       1  UNL1        0.0241
     28 H          -3.6114   -1.7146    1.6356 H       1  UNL1        0.0241
     29 H          -3.2238   -0.7508   -2.5873 H       1  UNL1        0.0241
     30 H          -3.4248   -2.4355   -2.0933 H       1  UNL1        0.0241
     31 H          -4.7795   -1.3066   -1.9602 H       1  UNL1        0.0241
     32 H          -5.6954    0.5543   -0.2758 H       1  UNL1        0.0621
     33 H          -5.7279    2.9781    0.2735 H       1  UNL1        0.0618
     34 H          -3.6196    4.1901    0.7415 H       1  UNL1        0.0618
     35 H          -1.4391    3.0089    0.6708 H       1  UNL1        0.0624
     36 H           0.5003    1.3820    0.4861 H       1  UNL1        0.0630
     37 H           2.7142   -2.0771    1.6828 H       1  UNL1        0.0624
     38 H           5.1376   -1.7350    1.9524 H       1  UNL1        0.0640
     39 H           8.2376    1.1539    0.1873 H       1  UNL1        0.0845
     40 H           6.9459    2.6261   -1.3940 H       1  UNL1        0.0845
     41 H           2.6222    1.1538   -1.1669 H       1  UNL1        0.0645
     42 H           1.1737   -2.7939   -0.4225 H       1  UNL1        0.0624
     43 H          -1.2502   -3.1465   -0.7153 H       1  UNL1        0.0621
@<TRIPOS>BOND
     1     1     2    1
     2     2     3    1
     3     2     4    1
     4     4     5   ar
     5     5     6   ar
     6     6     7   ar
     7     7     8   ar
     8     8     9   ar
     9     9    10    1
    10    10    11   ar
    11    11    12   ar
    12    12    13    1
    13    13    14   ar
    14    14    15   ar
    15    15    16   ar
    16    16    17   ar
    17    17    18   ar
    18    18    19   ar
    19    19    20   ar
    20    20    21   ar
    21    21    22   ar
    22    12    23   ar
    23    23    24   ar
    24    24    25   ar
    25    25     2    1
    26     9     4   ar
    27    25    10   ar
    28    22    13   ar
    29    21    16   ar
    30     1    26    1
    31     1    27    1
    32     1    28    1
    33     3    29    1
    34     3    30    1
    35     3    31    1
    36     5    32    1
    37     6    33    1
    38     7    34    1
    39     8    35    1
    40    11    36    1
    41    14    37    1
    42    15    38    1
    43    18    39    1
    44    19    40    1
    45    22    41    1
    46    23    42    1
    47    24    43    1
