@<TRIPOS>MOLECULE
*****
 40 43 0 0 0
SMALL
GASTEIGER

@<TRIPOS>ATOM
      1 C          -3.0854    0.4131    1.9180 C.3     1  UNL1       -0.0517
      2 C          -2.5066    0.8842    0.5790 C.3     1  UNL1        0.0162
      3 C          -2.9376    2.3221    0.2685 C.3     1  UNL1       -0.0517
      4 C          -2.9035   -0.0647   -0.5547 C.ar    1  UNL1       -0.0297
      5 C          -4.1730   -0.3710   -1.0254 C.ar    1  UNL1       -0.0572
      6 C          -4.2857   -1.2778   -2.0809 C.ar    1  UNL1       -0.0614
      7 C          -3.1430   -1.8632   -2.6492 C.ar    1  UNL1       -0.0612
      8 C          -1.8661   -1.5519   -2.1721 C.ar    1  UNL1       -0.0537
      9 C          -1.7522   -0.6516   -1.1247 C.ar    1  UNL1       -0.0136
     10 C          -0.5787   -0.1516   -0.4401 C.ar    1  UNL1       -0.0130
     11 C           0.7646   -0.4342   -0.6387 C.ar    1  UNL1       -0.0460
     12 C           1.7272    0.1914    0.1747 C.ar    1  UNL1       -0.0161
     13 C           3.1587   -0.0889   -0.0228 C.ar    1  UNL1       -0.0005
     14 C           3.8038    0.4242   -1.1643 C.ar    1  UNL1       -0.0528
     15 C           5.1600    0.1860   -1.3976 C.ar    1  UNL1       -0.0611
     16 C           5.8988   -0.5716   -0.4945 C.ar    1  UNL1       -0.0605
     17 C           5.2811   -1.0920    0.6422 C.ar    1  UNL1       -0.0438
     18 C           3.9176   -0.8569    0.8840 C.ar    1  UNL1        0.0595
     19 C           3.3308   -1.4266    2.0656 C.1     1  UNL1        0.0998
     20 N           2.8915   -1.8934    3.0337 N.1     1  UNL1       -0.1909
     21 C           1.3041    1.0992    1.1724 C.ar    1  UNL1       -0.0537
     22 C          -0.0495    1.3834    1.3747 C.ar    1  UNL1       -0.0566
     23 C          -0.9812    0.7533    0.5643 C.ar    1  UNL1       -0.0297
     24 H          -4.1812    0.4377    1.9097 H       1  UNL1        0.0241
     25 H          -2.7468    1.0483    2.7446 H       1  UNL1        0.0241
     26 H          -2.7827   -0.6153    2.1503 H       1  UNL1        0.0241
     27 H          -2.5285    2.6696   -0.6882 H       1  UNL1        0.0241
     28 H          -4.0287    2.4073    0.2079 H       1  UNL1        0.0241
     29 H          -2.5944    3.0176    1.0430 H       1  UNL1        0.0241
     30 H          -5.0591    0.0774   -0.5884 H       1  UNL1        0.0621
     31 H          -5.2689   -1.5357   -2.4675 H       1  UNL1        0.0618
     32 H          -3.2536   -2.5684   -3.4697 H       1  UNL1        0.0618
     33 H          -0.9909   -2.0118   -2.6179 H       1  UNL1        0.0624
     34 H           1.0688   -1.1356   -1.4100 H       1  UNL1        0.0630
     35 H           3.2437    1.0240   -1.8809 H       1  UNL1        0.0624
     36 H           5.6374    0.5947   -2.2852 H       1  UNL1        0.0618
     37 H           6.9549   -0.7579   -0.6751 H       1  UNL1        0.0618
     38 H           5.8686   -1.6860    1.3408 H       1  UNL1        0.0631
     39 H           2.0407    1.5940    1.8036 H       1  UNL1        0.0624
     40 H          -0.3550    2.0786    2.1499 H       1  UNL1        0.0621
@<TRIPOS>BOND
     1     1     2    1
     2     2     3    1
     3     2     4    1
     4     4     5   ar
     5     5     6   ar
     6     6     7   ar
     7     7     8   ar
     8     8     9   ar
     9     9    10    1
    10    10    11   ar
    11    11    12   ar
    12    12    13    1
    13    13    14   ar
    14    14    15   ar
    15    15    16   ar
    16    16    17   ar
    17    17    18   ar
    18    18    19    1
    19    19    20    3
    20    12    21   ar
    21    21    22   ar
    22    22    23   ar
    23    23     2    1
    24     9     4   ar
    25    23    10   ar
    26    18    13   ar
    27     1    24    1
    28     1    25    1
    29     1    26    1
    30     3    27    1
    31     3    28    1
    32     3    29    1
    33     5    30    1
    34     6    31    1
    35     7    32    1
    36     8    33    1
    37    11    34    1
    38    14    35    1
    39    15    36    1
    40    16    37    1
    41    17    38    1
    42    21    39    1
    43    22    40    1
