@<TRIPOS>MOLECULE
*****
 43 47 0 0 0
SMALL
GASTEIGER

@<TRIPOS>ATOM
      1 C          -3.5157    2.4300    0.7861 C.3     1  UNL1       -0.0517
      2 C          -3.1870    1.3036   -0.2004 C.3     1  UNL1        0.0162
      3 C          -3.7632    1.6027   -1.5890 C.3     1  UNL1       -0.0517
      4 C          -3.6856   -0.0461    0.3217 C.ar    1  UNL1       -0.0297
      5 C          -4.9872   -0.4430    0.5962 C.ar    1  UNL1       -0.0572
      6 C          -5.1968   -1.7393    1.0703 C.ar    1  UNL1       -0.0614
      7 C          -4.1173   -2.6161    1.2637 C.ar    1  UNL1       -0.0612
      8 C          -2.8078   -2.2122    0.9859 C.ar    1  UNL1       -0.0537
      9 C          -2.5977   -0.9260    0.5148 C.ar    1  UNL1       -0.0136
     10 C          -1.3716   -0.2484    0.1495 C.ar    1  UNL1       -0.0130
     11 C          -0.0582   -0.6970    0.1688 C.ar    1  UNL1       -0.0460
     12 C           0.9771    0.1664   -0.2390 C.ar    1  UNL1       -0.0158
     13 C           2.3769   -0.2839   -0.2315 C.ar    1  UNL1        0.0023
     14 C           2.7748   -1.4666   -0.8477 C.ar    1  UNL1        0.0361
     15 N           4.0455   -1.9325   -0.8713 N.ar    1  UNL1       -0.2528
     16 C           4.9848   -1.1890   -0.2551 C.ar    1  UNL1        0.0892
     17 C           6.3040   -1.6138   -0.2469 C.ar    1  UNL1       -0.0328
     18 C           7.2943   -0.8638    0.3830 C.ar    1  UNL1       -0.0415
     19 C           6.9206    0.3146    0.9978 C.ar    1  UNL1        0.0284
     20 N           5.6519    0.7734    1.0188 N.ar    1  UNL1       -0.2534
     21 C           4.7098    0.0286    0.4018 C.ar    1  UNL1        0.0897
     22 C           3.3894    0.4546    0.3959 C.ar    1  UNL1       -0.0251
     23 C           0.6447    1.4770   -0.6574 C.ar    1  UNL1       -0.0537
     24 C          -0.6779    1.9314   -0.6782 C.ar    1  UNL1       -0.0566
     25 C          -1.6771    1.0613   -0.2735 C.ar    1  UNL1       -0.0297
     26 H          -4.5984    2.5607    0.8960 H       1  UNL1        0.0241
     27 H          -3.1076    2.2262    1.7837 H       1  UNL1        0.0241
     28 H          -3.0995    3.3873    0.4517 H       1  UNL1        0.0241
     29 H          -4.8538    1.7075   -1.5544 H       1  UNL1        0.0241
     30 H          -3.5337    0.8025   -2.3034 H       1  UNL1        0.0241
     31 H          -3.3546    2.5338   -1.9984 H       1  UNL1        0.0241
     32 H          -5.8248    0.2308    0.4489 H       1  UNL1        0.0621
     33 H          -6.2069   -2.0752    1.2934 H       1  UNL1        0.0618
     34 H          -4.3029   -3.6214    1.6345 H       1  UNL1        0.0618
     35 H          -1.9823   -2.8986    1.1401 H       1  UNL1        0.0624
     36 H           0.1644   -1.7038    0.5104 H       1  UNL1        0.0630
     37 H           2.0582   -2.0964   -1.3705 H       1  UNL1        0.0836
     38 H           6.5621   -2.5466   -0.7410 H       1  UNL1        0.0640
     39 H           8.3266   -1.1946    0.3907 H       1  UNL1        0.0633
     40 H           7.6497    0.9404    1.5048 H       1  UNL1        0.0830
     41 H           3.1495    1.3842    0.9076 H       1  UNL1        0.0646
     42 H           1.4302    2.1570   -0.9852 H       1  UNL1        0.0624
     43 H          -0.9069    2.9403   -1.0061 H       1  UNL1        0.0621
@<TRIPOS>BOND
     1     1     2    1
     2     2     3    1
     3     2     4    1
     4     4     5   ar
     5     5     6   ar
     6     6     7   ar
     7     7     8   ar
     8     8     9   ar
     9     9    10    1
    10    10    11   ar
    11    11    12   ar
    12    12    13    1
    13    13    14   ar
    14    14    15   ar
    15    15    16   ar
    16    16    17   ar
    17    17    18   ar
    18    18    19   ar
    19    19    20   ar
    20    20    21   ar
    21    21    22   ar
    22    12    23   ar
    23    23    24   ar
    24    24    25   ar
    25    25     2    1
    26     9     4   ar
    27    25    10   ar
    28    22    13   ar
    29    21    16   ar
    30     1    26    1
    31     1    27    1
    32     1    28    1
    33     3    29    1
    34     3    30    1
    35     3    31    1
    36     5    32    1
    37     6    33    1
    38     7    34    1
    39     8    35    1
    40    11    36    1
    41    14    37    1
    42    17    38    1
    43    18    39    1
    44    19    40    1
    45    22    41    1
    46    23    42    1
    47    24    43    1
