@<TRIPOS>MOLECULE
*****
 43 47 0 0 0
SMALL
GASTEIGER

@<TRIPOS>ATOM
      1 C          -3.5660   -1.4087   -1.8687 C.3     1  UNL1       -0.0517
      2 C          -3.2180   -0.1068   -1.1382 C.3     1  UNL1        0.0162
      3 C          -3.8358    1.1039   -1.8468 C.3     1  UNL1       -0.0517
      4 C          -3.6542   -0.1665    0.3277 C.ar    1  UNL1       -0.0297
      5 C          -4.9336   -0.3092    0.8471 C.ar    1  UNL1       -0.0572
      6 C          -5.0842   -0.3370    2.2347 C.ar    1  UNL1       -0.0614
      7 C          -3.9690   -0.2235    3.0802 C.ar    1  UNL1       -0.0612
      8 C          -2.6820   -0.0798    2.5529 C.ar    1  UNL1       -0.0537
      9 C          -2.5304   -0.0519    1.1757 C.ar    1  UNL1       -0.0136
     10 C          -1.3388    0.0843    0.3649 C.ar    1  UNL1       -0.0130
     11 C          -0.0099    0.2253    0.7395 C.ar    1  UNL1       -0.0460
     12 C           0.9827    0.3389   -0.2528 C.ar    1  UNL1       -0.0158
     13 C           2.3967    0.4889    0.1164 C.ar    1  UNL1        0.0009
     14 C           2.8326    1.4766    0.9918 C.ar    1  UNL1        0.0377
     15 N           4.1191    1.6652    1.3761 N.ar    1  UNL1       -0.2351
     16 C           5.0609    0.8565    0.8909 C.ar    1  UNL1        0.1597
     17 N           6.3236    1.0518    1.2768 N.ar    1  UNL1       -0.2357
     18 C           7.2890    0.2392    0.7948 C.ar    1  UNL1        0.0300
     19 C           7.0558   -0.7978   -0.0849 C.ar    1  UNL1       -0.0429
     20 C           5.7484   -1.0101   -0.4929 C.ar    1  UNL1       -0.0496
     21 C           4.7299   -0.1779   -0.0058 C.ar    1  UNL1        0.0198
     22 C           3.3891   -0.3521   -0.3876 C.ar    1  UNL1       -0.0419
     23 C           0.5934    0.3055   -1.6131 C.ar    1  UNL1       -0.0537
     24 C          -0.7451    0.1646   -1.9931 C.ar    1  UNL1       -0.0566
     25 C          -1.7019    0.0547   -0.9971 C.ar    1  UNL1       -0.0297
     26 H          -3.1932   -1.3998   -2.8995 H       1  UNL1        0.0241
     27 H          -3.1284   -2.2822   -1.3699 H       1  UNL1        0.0241
     28 H          -4.6501   -1.5651   -1.9108 H       1  UNL1        0.0241
     29 H          -3.4715    1.1922   -2.8768 H       1  UNL1        0.0241
     30 H          -3.5927    2.0416   -1.3321 H       1  UNL1        0.0241
     31 H          -4.9285    1.0273   -1.8881 H       1  UNL1        0.0241
     32 H          -5.7988   -0.3970    0.1983 H       1  UNL1        0.0621
     33 H          -6.0759   -0.4476    2.6675 H       1  UNL1        0.0618
     34 H          -4.1088   -0.2473    4.1585 H       1  UNL1        0.0618
     35 H          -1.8285    0.0071    3.2166 H       1  UNL1        0.0624
     36 H           0.2580    0.2349    1.7923 H       1  UNL1        0.0630
     37 H           2.1339    2.1881    1.4272 H       1  UNL1        0.0836
     38 H           8.2917    0.4571    1.1523 H       1  UNL1        0.0830
     39 H           7.8682   -1.4211   -0.4406 H       1  UNL1        0.0633
     40 H           5.5260   -1.8182   -1.1846 H       1  UNL1        0.0625
     41 H           3.1202   -1.1560   -1.0696 H       1  UNL1        0.0631
     42 H           1.3456    0.4052   -2.3945 H       1  UNL1        0.0624
     43 H          -1.0196    0.1465   -3.0429 H       1  UNL1        0.0621
@<TRIPOS>BOND
     1     1     2    1
     2     2     3    1
     3     2     4    1
     4     4     5   ar
     5     5     6   ar
     6     6     7   ar
     7     7     8   ar
     8     8     9   ar
     9     9    10    1
    10    10    11   ar
    11    11    12   ar
    12    12    13    1
    13    13    14   ar
    14    14    15   ar
    15    15    16   ar
    16    16    17   ar
    17    17    18   ar
    18    18    19   ar
    19    19    20   ar
    20    20    21   ar
    21    21    22   ar
    22    12    23   ar
    23    23    24   ar
    24    24    25   ar
    25    25     2    1
    26     9     4   ar
    27    25    10   ar
    28    22    13   ar
    29    21    16   ar
    30     1    26    1
    31     1    27    1
    32     1    28    1
    33     3    29    1
    34     3    30    1
    35     3    31    1
    36     5    32    1
    37     6    33    1
    38     7    34    1
    39     8    35    1
    40    11    36    1
    41    14    37    1
    42    18    38    1
    43    19    39    1
    44    20    40    1
    45    22    41    1
    46    23    42    1
    47    24    43    1
