@<TRIPOS>MOLECULE
*****
 42 49 0 0 0
SMALL
GASTEIGER

@<TRIPOS>ATOM
      1 SI         -6.2993   -2.7209    0.4532 Si      1  UNL1        0.0000
      2 C          -6.9235   -1.0307   -0.0470 C.2     1  UNL1        0.0000
      3 C          -5.9029   -0.1628   -0.1835 C.ar    1  UNL1        0.0000
      4 C          -6.0665    1.2333   -0.5652 C.ar    1  UNL1        0.0000
      5 C          -4.9908    2.0368   -0.6800 C.ar    1  UNL1        0.0000
      6 C          -3.6960    1.4804   -0.4174 C.ar    1  UNL1        0.0000
      7 S          -2.2816    2.4248   -0.5388 S.2     1  UNL1        0.0000
      8 C          -1.2818    1.0606   -0.0903 C.ar    1  UNL1        0.0000
      9 C          -2.0464   -0.0690    0.1381 C.ar    1  UNL1        0.0000
     10 S          -1.0582   -1.4541    0.5914 S.2     1  UNL1        0.0000
     11 C           0.3883   -0.5261    0.4773 C.ar    1  UNL1        0.0000
     12 C           1.7201   -0.9576    0.7107 C.ar    1  UNL1        0.0000
     13 C           2.8166   -0.0770    0.5714 C.ar    1  UNL1        0.0000
     14 C           4.1774   -0.5041    0.8008 C.ar    1  UNL1        0.0000
     15 S           4.7554   -1.0568    2.3368 S.2     1  UNL1        0.0000
     16 C           6.3686   -1.3515    1.7440 C.ar    1  UNL1        0.0000
     17 C           6.3865   -1.0326    0.4323 C.ar    1  UNL1        0.0000
     18 C           7.2621   -1.0063   -0.6642 C.ar    1  UNL1        0.0000
     19 C           6.4887   -0.5313   -1.7319 C.ar    1  UNL1        0.0000
     20 O           5.1756   -0.2489   -1.4014 O.2     1  UNL1        0.0000
     21 C           5.1958   -0.5761   -0.0793 C.ar    1  UNL1        0.0000
     22 C           2.4618    1.2337    0.1998 C.ar    1  UNL1        0.0000
     23 C           3.3741    2.2577    0.0385 C.ar    1  UNL1        0.0000
     24 S           2.6303    3.7434   -0.4142 S.2     1  UNL1        0.0000
     25 C           1.0574    3.0455   -0.3897 C.ar    1  UNL1        0.0000
     26 C           1.1431    1.7271   -0.0450 C.ar    1  UNL1        0.0000
     27 C           0.0851    0.7653    0.1098 C.ar    1  UNL1        0.0000
     28 C          -3.4424    0.1677   -0.0495 C.ar    1  UNL1        0.0000
     29 C          -4.5511   -0.7330    0.0877 C.ar    1  UNL1        0.0000
     30 C          -4.5586   -2.0354    0.4293 C.2     1  UNL1        0.0000
     31 H          -6.5227   -3.7383   -0.6017 H       1  UNL1        0.0000
     32 H          -6.7396   -3.1027    1.8164 H       1  UNL1        0.0000
     33 H          -7.9744   -0.8379   -0.1921 H       1  UNL1        0.0000
     34 H          -7.0649    1.6128   -0.7547 H       1  UNL1        0.0000
     35 H          -5.0980    3.0787   -0.9637 H       1  UNL1        0.0000
     36 H           1.8972   -1.9940    0.9941 H       1  UNL1        0.0000
     37 H           7.1468   -1.7284    2.3921 H       1  UNL1        0.0000
     38 H           8.3049   -1.2851   -0.7094 H       1  UNL1        0.0000
     39 H           6.7265   -0.3441   -2.7712 H       1  UNL1        0.0000
     40 H           4.4490    2.2374    0.1529 H       1  UNL1        0.0000
     41 H           0.2097    3.6676   -0.6276 H       1  UNL1        0.0000
     42 H          -3.7224   -2.6684    0.6706 H       1  UNL1        0.0000
@<TRIPOS>BOND
     1     1     2    1
     2     2     3    2
     3     3     4   ar
     4     4     5   ar
     5     5     6   ar
     6     6     7   ar
     7     7     8   ar
     8     8     9   ar
     9     9    10   ar
    10    10    11   ar
    11    11    12   ar
    12    12    13   ar
    13    13    14    1
    14    14    15   ar
    15    15    16   ar
    16    16    17   ar
    17    17    18   ar
    18    18    19   ar
    19    19    20   ar
    20    20    21   ar
    21    13    22   ar
    22    22    23   ar
    23    23    24   ar
    24    24    25   ar
    25    25    26   ar
    26    26    27   ar
    27     9    28   ar
    28    28    29   ar
    29    29    30    2
    30    30     1    1
    31    29     3   ar
    32    28     6   ar
    33    27     8   ar
    34    27    11   ar
    35    21    14   ar
    36    26    22   ar
    37    21    17   ar
    38     1    31    1
    39     1    32    1
    40     2    33    1
    41     4    34    1
    42     5    35    1
    43    12    36    1
    44    16    37    1
    45    18    38    1
    46    19    39    1
    47    23    40    1
    48    25    41    1
    49    30    42    1
