@<TRIPOS>MOLECULE
*****
 41 45 0 0 0
SMALL
GASTEIGER

@<TRIPOS>ATOM
      1 C          -3.2494    1.9416   -1.7430 C.3     1  UNL1       -0.0517
      2 C          -2.8018    0.5090   -1.4315 C.3     1  UNL1        0.0162
      3 C          -3.1003   -0.4286   -2.6069 C.3     1  UNL1       -0.0517
      4 C          -3.4519   -0.0016   -0.1433 C.ar    1  UNL1       -0.0297
      5 C          -4.7994   -0.1878    0.1332 C.ar    1  UNL1       -0.0572
      6 C          -5.1548   -0.6713    1.3936 C.ar    1  UNL1       -0.0614
      7 C          -4.1726   -0.9609    2.3542 C.ar    1  UNL1       -0.0612
      8 C          -2.8163   -0.7718    2.0716 C.ar    1  UNL1       -0.0537
      9 C          -2.4612   -0.2915    0.8210 C.ar    1  UNL1       -0.0136
     10 C          -1.1575   -0.0028    0.2602 C.ar    1  UNL1       -0.0130
     11 C           0.1084   -0.1294    0.8195 C.ar    1  UNL1       -0.0445
     12 C           1.2485    0.2203    0.0656 C.ar    1  UNL1        0.0025
     13 C           2.6145    0.1111    0.6180 C.ar    1  UNL1        0.0916
     14 C           2.9146    0.2240    1.9686 C.ar    1  UNL1        0.0561
     15 N           4.1693    0.1182    2.4650 N.ar    1  UNL1       -0.2310
     16 C           5.1487   -0.0987    1.5814 C.ar    1  UNL1        0.1977
     17 N           6.4026   -0.2085    2.0422 N.ar    1  UNL1       -0.2316
     18 C           7.3714   -0.4230    1.1296 C.ar    1  UNL1        0.0482
     19 C           7.0981   -0.5254   -0.2161 C.ar    1  UNL1        0.0482
     20 N           5.8450   -0.4181   -0.7022 N.ar    1  UNL1       -0.2316
     21 C           4.8638   -0.2067    0.1863 C.ar    1  UNL1        0.1983
     22 N           3.6114   -0.0992   -0.2759 N.ar    1  UNL1       -0.2232
     23 C           1.0518    0.6803   -1.2620 C.ar    1  UNL1       -0.0522
     24 C          -0.2206    0.8089   -1.8291 C.ar    1  UNL1       -0.0565
     25 C          -1.3180    0.4671   -1.0583 C.ar    1  UNL1       -0.0296
     26 H          -3.0408    2.6215   -0.9077 H       1  UNL1        0.0241
     27 H          -4.3262    1.9888   -1.9421 H       1  UNL1        0.0241
     28 H          -2.7325    2.3383   -2.6245 H       1  UNL1        0.0241
     29 H          -2.5797   -0.1069   -3.5162 H       1  UNL1        0.0241
     30 H          -4.1726   -0.4567   -2.8325 H       1  UNL1        0.0241
     31 H          -2.7834   -1.4571   -2.3947 H       1  UNL1        0.0241
     32 H          -5.5621    0.0337   -0.6061 H       1  UNL1        0.0621
     33 H          -6.2038   -0.8265    1.6355 H       1  UNL1        0.0618
     34 H          -4.4718   -1.3375    3.3296 H       1  UNL1        0.0618
     35 H          -2.0683   -1.0006    2.8227 H       1  UNL1        0.0624
     36 H           0.1998   -0.5170    1.8293 H       1  UNL1        0.0630
     37 H           2.1522    0.4211    2.7148 H       1  UNL1        0.0852
     38 H           8.3807   -0.5101    1.5163 H       1  UNL1        0.0846
     39 H           7.8804   -0.6976   -0.9468 H       1  UNL1        0.0846
     40 H           1.9166    0.9461   -1.8713 H       1  UNL1        0.0624
     41 H          -0.3328    1.1648   -2.8482 H       1  UNL1        0.0621
@<TRIPOS>BOND
     1     1     2    1
     2     2     3    1
     3     2     4    1
     4     4     5   ar
     5     5     6   ar
     6     6     7   ar
     7     7     8   ar
     8     8     9   ar
     9     9    10    1
    10    10    11   ar
    11    11    12   ar
    12    12    13    1
    13    13    14   ar
    14    14    15   ar
    15    15    16   ar
    16    16    17   ar
    17    17    18   ar
    18    18    19   ar
    19    19    20   ar
    20    20    21   ar
    21    21    22   ar
    22    12    23   ar
    23    23    24   ar
    24    24    25   ar
    25    25     2    1
    26     9     4   ar
    27    25    10   ar
    28    22    13   ar
    29    21    16   ar
    30     1    26    1
    31     1    27    1
    32     1    28    1
    33     3    29    1
    34     3    30    1
    35     3    31    1
    36     5    32    1
    37     6    33    1
    38     7    34    1
    39     8    35    1
    40    11    36    1
    41    14    37    1
    42    18    38    1
    43    19    39    1
    44    23    40    1
    45    24    41    1
