@<TRIPOS>MOLECULE
*****
 35 38 0 0 0
SMALL
GASTEIGER

@<TRIPOS>ATOM
      1 C          -2.3206   -1.9927    0.6837 C.3     1  UNL1       -0.0517
      2 C          -1.8675   -0.8299   -0.2064 C.3     1  UNL1        0.0162
      3 C          -2.5766   -0.8680   -1.5649 C.3     1  UNL1       -0.0517
      4 C          -2.0894    0.5142    0.4911 C.ar    1  UNL1       -0.0297
      5 C          -3.2819    1.0855    0.9136 C.ar    1  UNL1       -0.0572
      6 C          -3.2329    2.3353    1.5337 C.ar    1  UNL1       -0.0614
      7 C          -2.0080    2.9945    1.7237 C.ar    1  UNL1       -0.0612
      8 C          -0.8090    2.4156    1.2966 C.ar    1  UNL1       -0.0537
      9 C          -0.8555    1.1752    0.6805 C.ar    1  UNL1       -0.0136
     10 C           0.2086    0.3516    0.1460 C.ar    1  UNL1       -0.0130
     11 C           1.5778    0.5737    0.0995 C.ar    1  UNL1       -0.0459
     12 C           2.4095   -0.4003   -0.4782 C.ar    1  UNL1       -0.0127
     13 C           3.8428   -0.1780   -0.5377 C.ar    1  UNL1        0.0408
     14 C           4.5993    1.0131   -0.6190 C.ar    1  UNL1        0.0777
     15 N           5.9147    0.7825   -0.6370 N.ar    1  UNL1       -0.0862
     16 O           6.0415   -0.5949   -0.5604 O.2     1  UNL1       -0.3623
     17 C           4.8080   -1.1569   -0.4992 C.ar    1  UNL1        0.1319
     18 C           1.8382   -1.5805   -1.0032 C.ar    1  UNL1       -0.0536
     19 C           0.4581   -1.8037   -0.9574 C.ar    1  UNL1       -0.0566
     20 C          -0.3462   -0.8332   -0.3812 C.ar    1  UNL1       -0.0297
     21 H          -1.8187   -1.9752    1.6590 H       1  UNL1        0.0241
     22 H          -2.0991   -2.9606    0.2193 H       1  UNL1        0.0241
     23 H          -3.4000   -1.9552    0.8705 H       1  UNL1        0.0241
     24 H          -3.6642   -0.7946   -1.4494 H       1  UNL1        0.0241
     25 H          -2.3633   -1.8003   -2.1003 H       1  UNL1        0.0241
     26 H          -2.2593   -0.0398   -2.2104 H       1  UNL1        0.0241
     27 H          -4.2312    0.5801    0.7695 H       1  UNL1        0.0621
     28 H          -4.1530    2.8048    1.8743 H       1  UNL1        0.0618
     29 H          -1.9927    3.9674    2.2097 H       1  UNL1        0.0618
     30 H           0.1305    2.9353    1.4502 H       1  UNL1        0.0624
     31 H           1.9899    1.4858    0.5192 H       1  UNL1        0.0630
     32 H           4.2536    2.0358   -0.6717 H       1  UNL1        0.0870
     33 H           4.7978   -2.2341   -0.4243 H       1  UNL1        0.1064
     34 H           2.4642   -2.3378   -1.4707 H       1  UNL1        0.0624
     35 H           0.0347   -2.7147   -1.3685 H       1  UNL1        0.0621
@<TRIPOS>BOND
     1     1     2    1
     2     2     3    1
     3     2     4    1
     4     4     5   ar
     5     5     6   ar
     6     6     7   ar
     7     7     8   ar
     8     8     9   ar
     9     9    10    1
    10    10    11   ar
    11    11    12   ar
    12    12    13    1
    13    13    14   ar
    14    14    15   ar
    15    15    16   ar
    16    16    17   ar
    17    12    18   ar
    18    18    19   ar
    19    19    20   ar
    20    20     2    1
    21     9     4   ar
    22    20    10   ar
    23    17    13   ar
    24     1    21    1
    25     1    22    1
    26     1    23    1
    27     3    24    1
    28     3    25    1
    29     3    26    1
    30     5    27    1
    31     6    28    1
    32     7    29    1
    33     8    30    1
    34    11    31    1
    35    14    32    1
    36    17    33    1
    37    18    34    1
    38    19    35    1
