@<TRIPOS>MOLECULE
*****
 35 38 0 0 0
SMALL
GASTEIGER

@<TRIPOS>ATOM
      1 C          -2.3607   -2.0550   -0.4819 C.3     1  UNL1       -0.0517
      2 C          -1.8783   -0.8877    0.3867 C.3     1  UNL1        0.0162
      3 C          -2.4873   -0.9588    1.7916 C.3     1  UNL1       -0.0517
      4 C          -2.1878    0.4557   -0.2784 C.ar    1  UNL1       -0.0297
      5 C          -3.4233    0.9957   -0.6084 C.ar    1  UNL1       -0.0572
      6 C          -3.4546    2.2518   -1.2169 C.ar    1  UNL1       -0.0614
      7 C          -2.2657    2.9480   -1.4869 C.ar    1  UNL1       -0.0612
      8 C          -1.0232    2.4005   -1.1528 C.ar    1  UNL1       -0.0537
      9 C          -0.9899    1.1538   -0.5483 C.ar    1  UNL1       -0.0136
     10 C           0.1331    0.3570   -0.0998 C.ar    1  UNL1       -0.0130
     11 C           1.4961    0.6186   -0.1513 C.ar    1  UNL1       -0.0445
     12 C           2.3963   -0.3324    0.3597 C.ar    1  UNL1        0.0015
     13 C           3.8435   -0.1178    0.3376 C.ar    1  UNL1        0.0781
     14 C           4.4549    1.1158    0.2023 C.ar    1  UNL1        0.0031
     15 S           6.1628    0.9417    0.2286 S.2     1  UNL1       -0.0833
     16 C           5.9640   -0.7471    0.4299 C.ar    1  UNL1        0.0654
     17 N           4.7256   -1.1830    0.4792 N.ar    1  UNL1       -0.2474
     18 C           1.8928   -1.5364    0.9027 C.ar    1  UNL1       -0.0522
     19 C           0.5209   -1.8015    0.9553 C.ar    1  UNL1       -0.0565
     20 C          -0.3495   -0.8478    0.4531 C.ar    1  UNL1       -0.0296
     21 H          -2.0796   -3.0202   -0.0452 H       1  UNL1        0.0241
     22 H          -3.4514   -2.0470   -0.5912 H       1  UNL1        0.0241
     23 H          -1.9304   -2.0141   -1.4901 H       1  UNL1        0.0241
     24 H          -2.1488   -0.1274    2.4221 H       1  UNL1        0.0241
     25 H          -3.5820   -0.9166    1.7546 H       1  UNL1        0.0241
     26 H          -2.2095   -1.8892    2.3002 H       1  UNL1        0.0241
     27 H          -4.3449    0.4613   -0.4023 H       1  UNL1        0.0621
     28 H          -4.4098    2.6970   -1.4858 H       1  UNL1        0.0618
     29 H          -2.3129    3.9251   -1.9622 H       1  UNL1        0.0618
     30 H          -0.1121    2.9483   -1.3673 H       1  UNL1        0.0624
     31 H           1.8441    1.5439   -0.5959 H       1  UNL1        0.0630
     32 H           4.0104    2.0943    0.0993 H       1  UNL1        0.0715
     33 H           6.8137   -1.4119    0.5134 H       1  UNL1        0.0907
     34 H           2.5848   -2.2817    1.2936 H       1  UNL1        0.0624
     35 H           0.1586   -2.7327    1.3781 H       1  UNL1        0.0621
@<TRIPOS>BOND
     1     1     2    1
     2     2     3    1
     3     2     4    1
     4     4     5   ar
     5     5     6   ar
     6     6     7   ar
     7     7     8   ar
     8     8     9   ar
     9     9    10    1
    10    10    11   ar
    11    11    12   ar
    12    12    13    1
    13    13    14   ar
    14    14    15   ar
    15    15    16   ar
    16    16    17   ar
    17    12    18   ar
    18    18    19   ar
    19    19    20   ar
    20    20     2    1
    21     9     4   ar
    22    20    10   ar
    23    17    13   ar
    24     1    21    1
    25     1    22    1
    26     1    23    1
    27     3    24    1
    28     3    25    1
    29     3    26    1
    30     5    27    1
    31     6    28    1
    32     7    29    1
    33     8    30    1
    34    11    31    1
    35    14    32    1
    36    16    33    1
    37    18    34    1
    38    19    35    1
