@<TRIPOS>MOLECULE
*****
 41 45 0 0 0
SMALL
GASTEIGER

@<TRIPOS>ATOM
      1 C          -3.4639   -2.4517   -0.4286 C.3     1  UNL1       -0.0517
      2 C          -3.0341   -1.2474    0.4169 C.3     1  UNL1        0.0162
      3 C          -3.6131   -1.3349    1.8335 C.3     1  UNL1       -0.0517
      4 C          -3.4320    0.0673   -0.2584 C.ar    1  UNL1       -0.0297
      5 C          -4.7020    0.5321   -0.5716 C.ar    1  UNL1       -0.0572
      6 C          -4.8157    1.7768   -1.1936 C.ar    1  UNL1       -0.0614
      7 C          -3.6735    2.5363   -1.4932 C.ar    1  UNL1       -0.0612
      8 C          -2.3961    2.0645   -1.1761 C.ar    1  UNL1       -0.0537
      9 C          -2.2812    0.8292   -0.5586 C.ar    1  UNL1       -0.0136
     10 C          -1.1067    0.1035   -0.1229 C.ar    1  UNL1       -0.0129
     11 C           0.2370    0.4417   -0.2013 C.ar    1  UNL1       -0.0415
     12 C           1.1997   -0.4504    0.3026 C.ar    1  UNL1        0.0375
     13 C           2.6292   -0.1475    0.2473 C.ar    1  UNL1        0.2284
     14 N           3.6484   -0.8747    0.6735 N.ar    1  UNL1       -0.2090
     15 C           4.7457   -0.1107    0.3686 C.ar    1  UNL1        0.1099
     16 C           6.1130   -0.3376    0.5708 C.ar    1  UNL1       -0.0326
     17 C           7.0170    0.6476    0.1440 C.ar    1  UNL1       -0.0595
     18 C           6.5689    1.8262   -0.4673 C.ar    1  UNL1       -0.0582
     19 C           5.2051    2.0666   -0.6759 C.ar    1  UNL1       -0.0171
     20 C           4.3447    1.0670   -0.2391 C.ar    1  UNL1        0.1557
     21 O           2.9840    1.0521   -0.3215 O.2     1  UNL1       -0.4353
     22 C           0.7767   -1.6709    0.8772 C.ar    1  UNL1       -0.0492
     23 C          -0.5765   -2.0136    0.9572 C.ar    1  UNL1       -0.0564
     24 C          -1.5087   -1.1197    0.4544 C.ar    1  UNL1       -0.0296
     25 H          -3.0548   -2.3993   -1.4450 H       1  UNL1        0.0241
     26 H          -4.5550   -2.5076   -0.5177 H       1  UNL1        0.0241
     27 H          -3.1198   -3.3934    0.0144 H       1  UNL1        0.0241
     28 H          -3.2737   -2.2413    2.3480 H       1  UNL1        0.0241
     29 H          -4.7089   -1.3555    1.8162 H       1  UNL1        0.0241
     30 H          -3.3114   -0.4775    2.4477 H       1  UNL1        0.0241
     31 H          -5.5878   -0.0510   -0.3422 H       1  UNL1        0.0621
     32 H          -5.7993    2.1639   -1.4496 H       1  UNL1        0.0618
     33 H          -3.7847    3.5035   -1.9780 H       1  UNL1        0.0618
     34 H          -1.5211    2.6604   -1.4125 H       1  UNL1        0.0624
     35 H           0.5351    1.3855   -0.6476 H       1  UNL1        0.0631
     36 H           6.4557   -1.2507    1.0442 H       1  UNL1        0.0640
     37 H           8.0840    0.4913    0.2916 H       1  UNL1        0.0618
     38 H           7.2956    2.5711   -0.7871 H       1  UNL1        0.0619
     39 H           4.8396    2.9704   -1.1461 H       1  UNL1        0.0655
     40 H           1.5196   -2.3655    1.2691 H       1  UNL1        0.0625
     41 H          -0.8789   -2.9559    1.4024 H       1  UNL1        0.0621
@<TRIPOS>BOND
     1     1     2    1
     2     2     3    1
     3     2     4    1
     4     4     5   ar
     5     5     6   ar
     6     6     7   ar
     7     7     8   ar
     8     8     9   ar
     9     9    10    1
    10    10    11   ar
    11    11    12   ar
    12    12    13    1
    13    13    14   ar
    14    14    15   ar
    15    15    16   ar
    16    16    17   ar
    17    17    18   ar
    18    18    19   ar
    19    19    20   ar
    20    20    21   ar
    21    12    22   ar
    22    22    23   ar
    23    23    24   ar
    24    24     2    1
    25     9     4   ar
    26    24    10   ar
    27    21    13   ar
    28    20    15   ar
    29     1    25    1
    30     1    26    1
    31     1    27    1
    32     3    28    1
    33     3    29    1
    34     3    30    1
    35     5    31    1
    36     6    32    1
    37     7    33    1
    38     8    34    1
    39    11    35    1
    40    16    36    1
    41    17    37    1
    42    18    38    1
    43    19    39    1
    44    22    40    1
    45    23    41    1
