@<TRIPOS>MOLECULE
*****
 38 41 0 0 0
SMALL
GASTEIGER

@<TRIPOS>ATOM
      1 C          -2.9592   -1.7970    0.7148 C.3     1  UNL1       -0.0517
      2 C          -2.3348   -0.7881   -0.2559 C.3     1  UNL1        0.0162
      3 C          -2.8402   -1.0144   -1.6853 C.3     1  UNL1       -0.0517
      4 C          -2.6011    0.6487    0.1996 C.ar    1  UNL1       -0.0297
      5 C          -3.8177    1.2993    0.3526 C.ar    1  UNL1       -0.0572
      6 C          -3.8077    2.6261    0.7871 C.ar    1  UNL1       -0.0614
      7 C          -2.5970    3.2823    1.0617 C.ar    1  UNL1       -0.0612
      8 C          -1.3738    2.6232    0.9061 C.ar    1  UNL1       -0.0537
      9 C          -1.3817    1.3065    0.4742 C.ar    1  UNL1       -0.0136
     10 C          -0.2863    0.3929    0.2280 C.ar    1  UNL1       -0.0130
     11 C           1.0828    0.5782    0.3533 C.ar    1  UNL1       -0.0445
     12 C           1.9615   -0.4787    0.0421 C.ar    1  UNL1        0.0023
     13 C           3.4184   -0.2826    0.1692 C.ar    1  UNL1        0.0915
     14 N           3.8099    0.1716    1.3885 N.ar    1  UNL1       -0.2341
     15 C           5.1228    0.3676    1.5754 C.ar    1  UNL1        0.1166
     16 N           6.0794    0.1648    0.6608 N.ar    1  UNL1       -0.2424
     17 C           5.6532   -0.2709   -0.5422 C.ar    1  UNL1        0.0487
     18 C           4.3296   -0.5129   -0.8502 C.ar    1  UNL1        0.0957
     19 C           3.9725   -0.9460   -2.1591 C.1     1  UNL1        0.1028
     20 N           3.7131   -1.3126   -3.2291 N.1     1  UNL1       -0.1908
     21 C           1.4138   -1.7185   -0.3683 C.ar    1  UNL1       -0.0522
     22 C           0.0336   -1.9073   -0.4967 C.ar    1  UNL1       -0.0565
     23 C          -0.8058   -0.8456   -0.1998 C.ar    1  UNL1       -0.0296
     24 H          -2.7127   -2.8271    0.4329 H       1  UNL1        0.0241
     25 H          -2.6035   -1.6444    1.7412 H       1  UNL1        0.0241
     26 H          -4.0518   -1.7114    0.7310 H       1  UNL1        0.0241
     27 H          -3.9292   -0.9048   -1.7455 H       1  UNL1        0.0241
     28 H          -2.5889   -2.0196   -2.0428 H       1  UNL1        0.0241
     29 H          -2.3997   -0.2972   -2.3887 H       1  UNL1        0.0241
     30 H          -4.7559    0.7966    0.1421 H       1  UNL1        0.0621
     31 H          -4.7472    3.1586    0.9152 H       1  UNL1        0.0618
     32 H          -2.6120    4.3158    1.3998 H       1  UNL1        0.0618
     33 H          -0.4449    3.1399    1.1223 H       1  UNL1        0.0624
     34 H           1.4771    1.5329    0.6911 H       1  UNL1        0.0630
     35 H           5.4360    0.7218    2.5517 H       1  UNL1        0.1047
     36 H           6.4436   -0.4191   -1.2753 H       1  UNL1        0.0844
     37 H           2.0665   -2.5632   -0.5839 H       1  UNL1        0.0624
     38 H          -0.3626   -2.8655   -0.8177 H       1  UNL1        0.0621
@<TRIPOS>BOND
     1     1     2    1
     2     2     3    1
     3     2     4    1
     4     4     5   ar
     5     5     6   ar
     6     6     7   ar
     7     7     8   ar
     8     8     9   ar
     9     9    10    1
    10    10    11   ar
    11    11    12   ar
    12    12    13    1
    13    13    14   ar
    14    14    15   ar
    15    15    16   ar
    16    16    17   ar
    17    17    18   ar
    18    18    19    1
    19    19    20    3
    20    12    21   ar
    21    21    22   ar
    22    22    23   ar
    23    23     2    1
    24     9     4   ar
    25    23    10   ar
    26    18    13   ar
    27     1    24    1
    28     1    25    1
    29     1    26    1
    30     3    27    1
    31     3    28    1
    32     3    29    1
    33     5    30    1
    34     6    31    1
    35     7    32    1
    36     8    33    1
    37    11    34    1
    38    15    35    1
    39    17    36    1
    40    21    37    1
    41    22    38    1
