@<TRIPOS>MOLECULE
*****
 34 37 0 0 0
SMALL
GASTEIGER

@<TRIPOS>ATOM
      1 C          -2.1645   -1.0239    1.9064 C.3     1  UNL1       -0.0517
      2 C          -1.6979   -0.8924    0.4522 C.3     1  UNL1        0.0162
      3 C          -2.2497   -2.0348   -0.4082 C.3     1  UNL1       -0.0517
      4 C          -2.0875    0.4693   -0.1281 C.ar    1  UNL1       -0.0297
      5 C          -3.3555    1.0025   -0.3143 C.ar    1  UNL1       -0.0572
      6 C          -3.4608    2.2797   -0.8682 C.ar    1  UNL1       -0.0614
      7 C          -2.3123    3.0035   -1.2266 C.ar    1  UNL1       -0.0612
      8 C          -1.0368    2.4628   -1.0374 C.ar    1  UNL1       -0.0537
      9 C          -0.9304    1.1951   -0.4877 C.ar    1  UNL1       -0.0136
     10 C           0.2404    0.3999   -0.1835 C.ar    1  UNL1       -0.0129
     11 C           1.5873    0.6841   -0.3572 C.ar    1  UNL1       -0.0429
     12 C           2.5431   -0.2732    0.0257 C.ar    1  UNL1        0.0230
     13 C           3.9702   -0.0104   -0.1416 C.ar    1  UNL1        0.2018
     14 N           4.9371   -0.9268    0.2230 N.ar    1  UNL1       -0.1942
     15 C           6.0436   -0.3032   -0.0900 C.ar    1  UNL1        0.2147
     16 O           5.8502    0.9281   -0.6206 O.2     1  UNL1       -0.3411
     17 N           4.4714    1.1269   -0.6567 N.ar    1  UNL1       -0.0564
     18 C           2.1146   -1.5015    0.5779 C.ar    1  UNL1       -0.0506
     19 C           0.7572   -1.7885    0.7532 C.ar    1  UNL1       -0.0565
     20 C          -0.1700   -0.8319    0.3696 C.ar    1  UNL1       -0.0296
     21 H          -3.2579   -0.9969    1.9787 H       1  UNL1        0.0241
     22 H          -1.7750   -0.2110    2.5316 H       1  UNL1        0.0241
     23 H          -1.8273   -1.9679    2.3499 H       1  UNL1        0.0241
     24 H          -1.9216   -1.9505   -1.4515 H       1  UNL1        0.0241
     25 H          -1.9152   -3.0107   -0.0379 H       1  UNL1        0.0241
     26 H          -3.3458   -2.0398   -0.4094 H       1  UNL1        0.0241
     27 H          -4.2463    0.4474   -0.0391 H       1  UNL1        0.0621
     28 H          -4.4427    2.7206   -1.0246 H       1  UNL1        0.0618
     29 H          -2.4166    3.9969   -1.6566 H       1  UNL1        0.0618
     30 H          -0.1567    3.0314   -1.3181 H       1  UNL1        0.0624
     31 H           1.8936    1.6349   -0.7837 H       1  UNL1        0.0631
     32 H           7.0650   -0.6346    0.0171 H       1  UNL1        0.1283
     33 H           2.8498   -2.2476    0.8767 H       1  UNL1        0.0625
     34 H           0.4470   -2.7372    1.1789 H       1  UNL1        0.0621
@<TRIPOS>BOND
     1     1     2    1
     2     2     3    1
     3     2     4    1
     4     4     5   ar
     5     5     6   ar
     6     6     7   ar
     7     7     8   ar
     8     8     9   ar
     9     9    10    1
    10    10    11   ar
    11    11    12   ar
    12    12    13    1
    13    13    14   ar
    14    14    15   ar
    15    15    16   ar
    16    16    17   ar
    17    12    18   ar
    18    18    19   ar
    19    19    20   ar
    20    20     2    1
    21     9     4   ar
    22    20    10   ar
    23    17    13   ar
    24     1    21    1
    25     1    22    1
    26     1    23    1
    27     3    24    1
    28     3    25    1
    29     3    26    1
    30     5    27    1
    31     6    28    1
    32     7    29    1
    33     8    30    1
    34    11    31    1
    35    15    32    1
    36    18    33    1
    37    19    34    1
