@<TRIPOS>MOLECULE
*****
 49 54 0 0 0
SMALL
GASTEIGER

@<TRIPOS>ATOM
      1 C          -4.2150   -0.0421    2.0541 C.3     1  UNL1       -0.0516
      2 C          -3.8777   -0.4393    0.5966 C.3     1  UNL1        0.0186
      3 C          -4.4545   -1.8444    0.2925 C.3     1  UNL1       -0.0516
      4 C          -4.5544    0.5753   -0.3506 C.ar    1  UNL1       -0.0162
      5 C          -5.9544    0.7483   -0.3612 C.ar    1  UNL1       -0.0560
      6 C          -6.5640    1.6698   -1.2141 C.ar    1  UNL1       -0.0614
      7 C          -5.7867    2.4424   -2.0675 C.ar    1  UNL1       -0.0600
      8 C          -4.4016    2.2874   -2.0697 C.ar    1  UNL1       -0.0402
      9 C          -3.7819    1.3475   -1.2333 C.ar    1  UNL1        0.0354
     10 N          -2.3850    1.2549   -1.2143 N.pl3   1  UNL1       -0.3140
     11 C          -1.6715    0.3176   -0.4566 C.ar    1  UNL1        0.0360
     12 C          -0.2691    0.2770   -0.5494 C.ar    1  UNL1       -0.0311
     13 C           0.5045   -0.6016    0.2279 C.ar    1  UNL1        0.0022
     14 C           1.9784   -0.6470    0.1320 C.ar    1  UNL1        0.0730
     15 C           2.7458    0.5016   -0.0719 C.ar    1  UNL1       -0.0117
     16 C           4.1276    0.3170   -0.1401 C.ar    1  UNL1        0.0510
     17 N           5.1434    1.2249   -0.3238 N.ar    1  UNL1       -0.3540
     18 C           6.3651    0.5945   -0.3271 C.ar    1  UNL1        0.0504
     19 C           7.6504    1.1093   -0.4823 C.ar    1  UNL1       -0.0196
     20 C           8.6678    0.1687   -0.4295 C.ar    1  UNL1        0.0295
     21 N           8.4883   -1.1574   -0.2441 N.ar    1  UNL1       -0.2625
     22 C           7.2274   -1.6340   -0.0950 C.ar    1  UNL1        0.0373
     23 C           6.1281   -0.7666   -0.1332 C.ar    1  UNL1        0.0269
     24 C           4.7139   -0.9397   -0.0122 C.ar    1  UNL1        0.0270
     25 C           3.8769   -2.0396    0.1962 C.ar    1  UNL1        0.0380
     26 N           2.5318   -1.8801    0.2702 N.ar    1  UNL1       -0.2542
     27 C          -0.1819   -1.4462    1.1107 C.ar    1  UNL1       -0.0522
     28 C          -1.5742   -1.3962    1.2318 C.ar    1  UNL1       -0.0554
     29 C          -2.3414   -0.5063    0.4584 C.ar    1  UNL1       -0.0162
     30 H          -3.8175    0.9521    2.2936 H       1  UNL1        0.0241
     31 H          -3.7961   -0.7457    2.7823 H       1  UNL1        0.0241
     32 H          -5.2951   -0.0151    2.2366 H       1  UNL1        0.0241
     33 H          -5.5431   -1.8811    0.4107 H       1  UNL1        0.0241
     34 H          -4.2264   -2.1493   -0.7365 H       1  UNL1        0.0241
     35 H          -4.0486   -2.6134    0.9590 H       1  UNL1        0.0241
     36 H          -6.5895    0.1661    0.3022 H       1  UNL1        0.0621
     37 H          -7.6444    1.7870   -1.2043 H       1  UNL1        0.0618
     38 H          -6.2549    3.1694   -2.7252 H       1  UNL1        0.0618
     39 H          -3.8038    2.9102   -2.7294 H       1  UNL1        0.0636
     40 H          -1.9118    1.6177   -2.0307 H       1  UNL1        0.1522
     41 H           0.2222    0.9384   -1.2586 H       1  UNL1        0.0643
     42 H           2.3003    1.4852   -0.1527 H       1  UNL1        0.0660
     43 H           5.0109    2.2193   -0.4413 H       1  UNL1        0.1659
     44 H           7.8505    2.1620   -0.6327 H       1  UNL1        0.0653
     45 H           9.7053    0.4748   -0.5405 H       1  UNL1        0.0830
     46 H           7.1337   -2.7039    0.0516 H       1  UNL1        0.0836
     47 H           4.2449   -3.0530    0.3091 H       1  UNL1        0.0836
     48 H           0.3752   -2.1514    1.7264 H       1  UNL1        0.0624
     49 H          -2.0481   -2.0655    1.9458 H       1  UNL1        0.0621
@<TRIPOS>BOND
     1     1     2    1
     2     2     3    1
     3     2     4    1
     4     4     5   ar
     5     5     6   ar
     6     6     7   ar
     7     7     8   ar
     8     8     9   ar
     9     9    10    1
    10    10    11    1
    11    11    12   ar
    12    12    13   ar
    13    13    14    1
    14    14    15   ar
    15    15    16   ar
    16    16    17   ar
    17    17    18   ar
    18    18    19   ar
    19    19    20   ar
    20    20    21   ar
    21    21    22   ar
    22    22    23   ar
    23    23    24   ar
    24    24    25   ar
    25    25    26   ar
    26    13    27   ar
    27    27    28   ar
    28    28    29   ar
    29    29     2    1
    30     9     4   ar
    31    29    11   ar
    32    26    14   ar
    33    24    16   ar
    34    23    18   ar
    35     1    30    1
    36     1    31    1
    37     1    32    1
    38     3    33    1
    39     3    34    1
    40     3    35    1
    41     5    36    1
    42     6    37    1
    43     7    38    1
    44     8    39    1
    45    10    40    1
    46    12    41    1
    47    15    42    1
    48    17    43    1
    49    19    44    1
    50    20    45    1
    51    22    46    1
    52    25    47    1
    53    27    48    1
    54    28    49    1
