@<TRIPOS>MOLECULE
*****
 44 48 0 0 0
SMALL
GASTEIGER

@<TRIPOS>ATOM
      1 C          -3.0255   -2.3499   -0.4533 C.3     1  UNL1       -0.0516
      2 C          -2.6769   -0.9571   -1.0317 C.3     1  UNL1        0.0186
      3 C          -2.9308   -0.9488   -2.5598 C.3     1  UNL1       -0.0516
      4 C          -3.6127    0.0848   -0.3813 C.ar    1  UNL1       -0.0162
      5 C          -5.0140    0.0012   -0.5222 C.ar    1  UNL1       -0.0560
      6 C          -5.8590    0.9401    0.0715 C.ar    1  UNL1       -0.0614
      7 C          -5.3217    1.9764    0.8244 C.ar    1  UNL1       -0.0600
      8 C          -3.9399    2.0741    0.9771 C.ar    1  UNL1       -0.0402
      9 C          -3.0815    1.1491    0.3650 C.ar    1  UNL1        0.0354
     10 N          -1.7015    1.2381    0.5834 N.pl3   1  UNL1       -0.3140
     11 C          -0.7561    0.4002   -0.0207 C.ar    1  UNL1        0.0360
     12 C           0.6108    0.6080    0.2276 C.ar    1  UNL1       -0.0311
     13 C           1.5856   -0.2387   -0.3130 C.ar    1  UNL1        0.0001
     14 C           3.0076   -0.0157   -0.0554 C.ar    1  UNL1        0.0476
     15 C           4.1065   -0.1475   -0.8874 C.ar    1  UNL1       -0.0272
     16 C           5.2771    0.1762   -0.1473 C.ar    1  UNL1        0.0183
     17 C           6.6437    0.2302   -0.4455 C.ar    1  UNL1        0.0367
     18 N           7.5434    0.5807    0.5074 N.ar    1  UNL1       -0.2625
     19 C           7.0961    0.8752    1.7484 C.ar    1  UNL1        0.0295
     20 C           5.7665    0.8517    2.1435 C.ar    1  UNL1       -0.0196
     21 C           4.8643    0.4912    1.1453 C.ar    1  UNL1        0.0498
     22 N           3.4957    0.3629    1.1766 N.ar    1  UNL1       -0.3541
     23 C           1.1725   -1.3100   -1.1056 C.ar    1  UNL1       -0.0522
     24 C          -0.1869   -1.5409   -1.3347 C.ar    1  UNL1       -0.0554
     25 C          -1.1738   -0.6966   -0.7896 C.ar    1  UNL1       -0.0162
     26 H          -2.4227   -3.1472   -0.9022 H       1  UNL1        0.0241
     27 H          -2.8543   -2.3807    0.6301 H       1  UNL1        0.0241
     28 H          -4.0732   -2.6199   -0.6265 H       1  UNL1        0.0241
     29 H          -2.3278   -1.6974   -3.0854 H       1  UNL1        0.0241
     30 H          -2.6891    0.0297   -2.9936 H       1  UNL1        0.0241
     31 H          -3.9750   -1.1679   -2.8087 H       1  UNL1        0.0241
     32 H          -5.4662   -0.8041   -1.0961 H       1  UNL1        0.0621
     33 H          -6.9358    0.8552   -0.0493 H       1  UNL1        0.0618
     34 H          -5.9753    2.7033    1.2984 H       1  UNL1        0.0618
     35 H          -3.5336    2.8793    1.5831 H       1  UNL1        0.0636
     36 H          -1.3646    2.1413    0.8885 H       1  UNL1        0.1522
     37 H           0.9105    1.4552    0.8381 H       1  UNL1        0.0643
     38 H           4.0718   -0.4368   -1.9299 H       1  UNL1        0.0645
     39 H           7.0439    0.0003   -1.4260 H       1  UNL1        0.0836
     40 H           7.8743    1.1454    2.4579 H       1  UNL1        0.0830
     41 H           5.4630    1.0963    3.1525 H       1  UNL1        0.0653
     42 H           2.9265    0.5036    1.9990 H       1  UNL1        0.1659
     43 H           1.9022   -1.9915   -1.5367 H       1  UNL1        0.0624
     44 H          -0.4641   -2.3988   -1.9427 H       1  UNL1        0.0621
@<TRIPOS>BOND
     1     1     2    1
     2     2     3    1
     3     2     4    1
     4     4     5   ar
     5     5     6   ar
     6     6     7   ar
     7     7     8   ar
     8     8     9   ar
     9     9    10    1
    10    10    11    1
    11    11    12   ar
    12    12    13   ar
    13    13    14    1
    14    14    15   ar
    15    15    16   ar
    16    16    17   ar
    17    17    18   ar
    18    18    19   ar
    19    19    20   ar
    20    20    21   ar
    21    21    22   ar
    22    13    23   ar
    23    23    24   ar
    24    24    25   ar
    25    25     2    1
    26     9     4   ar
    27    25    11   ar
    28    22    14   ar
    29    21    16   ar
    30     1    26    1
    31     1    27    1
    32     1    28    1
    33     3    29    1
    34     3    30    1
    35     3    31    1
    36     5    32    1
    37     6    33    1
    38     7    34    1
    39     8    35    1
    40    10    36    1
    41    12    37    1
    42    15    38    1
    43    17    39    1
    44    19    40    1
    45    20    41    1
    46    22    42    1
    47    23    43    1
    48    24    44    1
