@<TRIPOS>MOLECULE
*****
 49 53 0 0 0
SMALL
GASTEIGER

@<TRIPOS>ATOM
      1 C          -4.4750   -1.3753   -1.1975 C.3     1  UNL1       -0.0516
      2 C          -3.9655   -0.5892    0.0349 C.3     1  UNL1        0.0186
      3 C          -4.4189   -1.3032    1.3325 C.3     1  UNL1       -0.0516
      4 C          -4.6037    0.8168    0.0086 C.ar    1  UNL1       -0.0162
      5 C          -6.0033    0.9884    0.0521 C.ar    1  UNL1       -0.0560
      6 C          -6.5784    2.2597    0.0188 C.ar    1  UNL1       -0.0614
      7 C          -5.7673    3.3843   -0.0664 C.ar    1  UNL1       -0.0600
      8 C          -4.3825    3.2348   -0.1125 C.ar    1  UNL1       -0.0402
      9 C          -3.7946    1.9628   -0.0579 C.ar    1  UNL1        0.0354
     10 N          -2.4046    1.8382   -0.1551 N.pl3   1  UNL1       -0.3140
     11 C          -1.7145    0.6248   -0.0624 C.ar    1  UNL1        0.0360
     12 C          -0.3110    0.6190   -0.1212 C.ar    1  UNL1       -0.0325
     13 C           0.4261   -0.5749   -0.0852 C.ar    1  UNL1       -0.0147
     14 C           1.8939   -0.5638   -0.1350 C.ar    1  UNL1        0.0003
     15 C           2.6090   -1.3193   -1.0669 C.ar    1  UNL1       -0.0505
     16 C           4.0054   -1.2804   -1.0841 C.ar    1  UNL1       -0.0336
     17 C           4.6883   -0.4830   -0.1650 C.ar    1  UNL1        0.0891
     18 C           6.1696   -0.4015   -0.1363 C.ar    1  UNL1        0.0891
     19 C           6.8523    0.3951    0.7863 C.ar    1  UNL1       -0.0342
     20 C           8.2454    0.4334    0.7674 C.ar    1  UNL1       -0.0583
     21 C           8.9326   -0.3228   -0.1709 C.ar    1  UNL1       -0.0436
     22 C           8.1946   -1.0890   -1.0544 C.ar    1  UNL1        0.0283
     23 N           6.8439   -1.1455   -1.0589 N.ar    1  UNL1       -0.2534
     24 N           4.0127    0.2610    0.7532 N.ar    1  UNL1       -0.2528
     25 C           2.6569    0.2006    0.7452 C.ar    1  UNL1        0.0360
     26 C          -0.2860   -1.7769   -0.0061 C.ar    1  UNL1       -0.0536
     27 C          -1.6836   -1.7835    0.0335 C.ar    1  UNL1       -0.0554
     28 C          -2.4211   -0.5849    0.0006 C.ar    1  UNL1       -0.0162
     29 H          -4.1654   -0.8885   -2.1308 H       1  UNL1        0.0241
     30 H          -4.0919   -2.4016   -1.2214 H       1  UNL1        0.0241
     31 H          -5.5677   -1.4531   -1.2163 H       1  UNL1        0.0241
     32 H          -5.5093   -1.3805    1.4048 H       1  UNL1        0.0241
     33 H          -4.0692   -0.7634    2.2215 H       1  UNL1        0.0241
     34 H          -4.0345   -2.3269    1.3993 H       1  UNL1        0.0241
     35 H          -6.6656    0.1279    0.1078 H       1  UNL1        0.0621
     36 H          -7.6593    2.3683    0.0518 H       1  UNL1        0.0618
     37 H          -6.2099    4.3758   -0.1038 H       1  UNL1        0.0618
     38 H          -3.7602    4.1217   -0.1948 H       1  UNL1        0.0636
     39 H          -1.8683    2.6774    0.0171 H       1  UNL1        0.1522
     40 H           0.2150    1.5671   -0.2139 H       1  UNL1        0.0642
     41 H           2.0890   -1.9350   -1.7970 H       1  UNL1        0.0625
     42 H           4.5521   -1.8688   -1.8157 H       1  UNL1        0.0640
     43 H           6.3048    0.9833    1.5172 H       1  UNL1        0.0639
     44 H           8.7839    1.0499    1.4813 H       1  UNL1        0.0619
     45 H          10.0157   -0.3158   -0.2129 H       1  UNL1        0.0633
     46 H           8.6844   -1.6990   -1.8081 H       1  UNL1        0.0830
     47 H           2.1817    0.8080    1.5123 H       1  UNL1        0.0836
     48 H           0.2430   -2.7276    0.0317 H       1  UNL1        0.0624
     49 H          -2.1892   -2.7447    0.0886 H       1  UNL1        0.0621
@<TRIPOS>BOND
     1     1     2    1
     2     2     3    1
     3     2     4    1
     4     4     5   ar
     5     5     6   ar
     6     6     7   ar
     7     7     8   ar
     8     8     9   ar
     9     9    10    1
    10    10    11    1
    11    11    12   ar
    12    12    13   ar
    13    13    14    1
    14    14    15   ar
    15    15    16   ar
    16    16    17   ar
    17    17    18    1
    18    18    19   ar
    19    19    20   ar
    20    20    21   ar
    21    21    22   ar
    22    22    23   ar
    23    17    24   ar
    24    24    25   ar
    25    13    26   ar
    26    26    27   ar
    27    27    28   ar
    28    28     2    1
    29     9     4   ar
    30    28    11   ar
    31    25    14   ar
    32    23    18   ar
    33     1    29    1
    34     1    30    1
    35     1    31    1
    36     3    32    1
    37     3    33    1
    38     3    34    1
    39     5    35    1
    40     6    36    1
    41     7    37    1
    42     8    38    1
    43    10    39    1
    44    12    40    1
    45    15    41    1
    46    16    42    1
    47    19    43    1
    48    20    44    1
    49    21    45    1
    50    22    46    1
    51    25    47    1
    52    26    48    1
    53    27    49    1
