@<TRIPOS>MOLECULE
*****
 49 53 0 0 0
SMALL
GASTEIGER

@<TRIPOS>ATOM
      1 C          -4.3558   -1.0763    1.5913 C.3     1  UNL1       -0.0516
      2 C          -3.7982   -1.0669    0.1461 C.3     1  UNL1        0.0186
      3 C          -4.0498   -2.4422   -0.5181 C.3     1  UNL1       -0.0516
      4 C          -4.5628    0.0060   -0.6597 C.ar    1  UNL1       -0.0162
      5 C          -5.9650   -0.0461   -0.8052 C.ar    1  UNL1       -0.0560
      6 C          -6.6532    0.9200   -1.5408 C.ar    1  UNL1       -0.0614
      7 C          -5.9538    1.9528   -2.1522 C.ar    1  UNL1       -0.0600
      8 C          -4.5678    2.0197   -2.0218 C.ar    1  UNL1       -0.0402
      9 C          -3.8699    1.0665   -1.2661 C.ar    1  UNL1        0.0354
     10 N          -2.4736    1.1266   -1.1969 N.pl3   1  UNL1       -0.3140
     11 C          -1.6868    0.2594   -0.4300 C.ar    1  UNL1        0.0360
     12 C          -0.2947    0.4418   -0.3883 C.ar    1  UNL1       -0.0325
     13 C           0.5437   -0.4286    0.3246 C.ar    1  UNL1       -0.0161
     14 C           1.9991   -0.2188    0.3659 C.ar    1  UNL1       -0.0178
     15 C           2.6842   -0.1291    1.5840 C.ar    1  UNL1       -0.0534
     16 C           4.0708    0.0691    1.6199 C.ar    1  UNL1       -0.0519
     17 C           4.8305    0.1900    0.4431 C.ar    1  UNL1        0.0019
     18 C           6.2904    0.4036    0.5077 C.ar    1  UNL1        0.0890
     19 C           7.0199    1.0742   -0.4755 C.ar    1  UNL1        0.0535
     20 N           8.3636    1.2677   -0.4183 N.ar    1  UNL1       -0.2596
     21 C           8.9675    0.7646    0.6781 C.ar    1  UNL1        0.0457
     22 C           8.2642    0.1052    1.6689 C.ar    1  UNL1        0.0464
     23 N           6.9255   -0.0850    1.6083 N.ar    1  UNL1       -0.2520
     24 C           4.1372    0.0886   -0.7752 C.ar    1  UNL1       -0.0519
     25 C           2.7492   -0.1089   -0.8127 C.ar    1  UNL1       -0.0534
     26 C          -0.0504   -1.5073    0.9885 C.ar    1  UNL1       -0.0536
     27 C          -1.4323   -1.7124    0.9330 C.ar    1  UNL1       -0.0554
     28 C          -2.2726   -0.8375    0.2183 C.ar    1  UNL1       -0.0162
     29 H          -5.4326   -1.2759    1.6199 H       1  UNL1        0.0241
     30 H          -4.1887   -0.1101    2.0839 H       1  UNL1        0.0241
     31 H          -3.8856   -1.8460    2.2131 H       1  UNL1        0.0241
     32 H          -5.1160   -2.6900   -0.5660 H       1  UNL1        0.0241
     33 H          -3.6630   -2.4605   -1.5448 H       1  UNL1        0.0241
     34 H          -3.5666   -3.2602    0.0278 H       1  UNL1        0.0241
     35 H          -6.5400   -0.8480   -0.3485 H       1  UNL1        0.0621
     36 H          -7.7337    0.8592   -1.6409 H       1  UNL1        0.0618
     37 H          -6.4830    2.7011   -2.7355 H       1  UNL1        0.0618
     38 H          -4.0307    2.8228   -2.5189 H       1  UNL1        0.0636
     39 H          -2.0557    2.0161   -1.4334 H       1  UNL1        0.1522
     40 H           0.1437    1.2860   -0.9157 H       1  UNL1        0.0642
     41 H           2.1423   -0.2038    2.5249 H       1  UNL1        0.0624
     42 H           4.5620    0.1337    2.5903 H       1  UNL1        0.0624
     43 H           6.5434    1.5002   -1.3515 H       1  UNL1        0.0851
     44 H          10.0399    0.9078    0.7417 H       1  UNL1        0.0845
     45 H           8.7602   -0.2927    2.5467 H       1  UNL1        0.0845
     46 H           4.6658    0.1377   -1.7247 H       1  UNL1        0.0624
     47 H           2.2579   -0.1967   -1.7804 H       1  UNL1        0.0624
     48 H           0.5639   -2.2146    1.5425 H       1  UNL1        0.0624
     49 H          -1.8423   -2.5749    1.4529 H       1  UNL1        0.0621
@<TRIPOS>BOND
     1     1     2    1
     2     2     3    1
     3     2     4    1
     4     4     5   ar
     5     5     6   ar
     6     6     7   ar
     7     7     8   ar
     8     8     9   ar
     9     9    10    1
    10    10    11    1
    11    11    12   ar
    12    12    13   ar
    13    13    14    1
    14    14    15   ar
    15    15    16   ar
    16    16    17   ar
    17    17    18    1
    18    18    19   ar
    19    19    20   ar
    20    20    21   ar
    21    21    22   ar
    22    22    23   ar
    23    17    24   ar
    24    24    25   ar
    25    13    26   ar
    26    26    27   ar
    27    27    28   ar
    28    28     2    1
    29     9     4   ar
    30    28    11   ar
    31    25    14   ar
    32    23    18   ar
    33     1    29    1
    34     1    30    1
    35     1    31    1
    36     3    32    1
    37     3    33    1
    38     3    34    1
    39     5    35    1
    40     6    36    1
    41     7    37    1
    42     8    38    1
    43    10    39    1
    44    12    40    1
    45    15    41    1
    46    16    42    1
    47    19    43    1
    48    21    44    1
    49    22    45    1
    50    24    46    1
    51    25    47    1
    52    26    48    1
    53    27    49    1
