@<TRIPOS>MOLECULE
*****
 42 48 0 0 0
SMALL
GASTEIGER

@<TRIPOS>ATOM
      1 SI          5.5442    2.2612    1.3955 Si      1  UNL1        0.0000
      2 C           6.3911    0.8987    0.4484 C.2     1  UNL1        0.0000
      3 C           5.4913    0.0577   -0.0963 C.ar    1  UNL1        0.0000
      4 C           5.8590   -1.1014   -0.8923 C.ar    1  UNL1        0.0000
      5 C           4.9026   -1.8966   -1.4043 C.ar    1  UNL1        0.0000
      6 C           3.5347   -1.5672   -1.1427 C.ar    1  UNL1        0.0000
      7 S           2.2685   -2.5207   -1.7535 S.2     1  UNL1        0.0000
      8 C           1.0611   -1.5216   -1.0425 C.ar    1  UNL1        0.0000
      9 C          -0.3364   -1.7304   -1.1451 C.ar    1  UNL1        0.0000
     10 C          -1.2407   -0.8598   -0.5290 C.ar    1  UNL1        0.0000
     11 C          -2.6657   -1.0863   -0.6414 C.ar    1  UNL1        0.0000
     12 C          -3.6822   -0.2803   -0.0576 C.ar    1  UNL1        0.0000
     13 C          -5.0976   -0.5479   -0.1742 C.ar    1  UNL1        0.0000
     14 C          -6.2162   -0.2968    0.5965 C.ar    1  UNL1        0.0000
     15 C          -7.3252   -0.8392   -0.0993 C.ar    1  UNL1        0.0000
     16 C          -6.8180   -1.3956   -1.2479 C.ar    1  UNL1        0.0000
     17 O          -5.4722   -1.2314   -1.2992 O.2     1  UNL1        0.0000
     18 C          -3.1174    0.7885    0.6404 C.ar    1  UNL1        0.0000
     19 C          -3.7375    1.8186    1.3016 C.ar    1  UNL1        0.0000
     20 O          -2.8032    2.6588    1.8407 O.2     1  UNL1        0.0000
     21 C          -1.5715    2.1722    1.5066 C.ar    1  UNL1        0.0000
     22 C          -1.7120    1.0307    0.7603 C.ar    1  UNL1        0.0000
     23 C          -0.6918    0.2308    0.1952 C.ar    1  UNL1        0.0000
     24 C           0.7075    0.4383    0.2954 C.ar    1  UNL1        0.0000
     25 C           1.6173   -0.4501   -0.3317 C.ar    1  UNL1        0.0000
     26 C           3.0623   -0.4885   -0.3983 C.ar    1  UNL1        0.0000
     27 C           4.0592    0.3937    0.1716 C.ar    1  UNL1        0.0000
     28 C           3.8983    1.4990    0.9253 C.2     1  UNL1        0.0000
     29 H           5.7999    2.1870    2.8538 H       1  UNL1        0.0000
     30 H           5.7416    3.5941    0.7777 H       1  UNL1        0.0000
     31 H           7.4659    0.8420    0.3797 H       1  UNL1        0.0000
     32 H           6.9086   -1.3132   -1.0654 H       1  UNL1        0.0000
     33 H           5.1582   -2.7661   -2.0010 H       1  UNL1        0.0000
     34 H          -0.7005   -2.5836   -1.7143 H       1  UNL1        0.0000
     35 H          -2.9936   -1.9552   -1.2181 H       1  UNL1        0.0000
     36 H          -6.2372    0.2011    1.5550 H       1  UNL1        0.0000
     37 H          -8.3628   -0.8319    0.2029 H       1  UNL1        0.0000
     38 H          -7.2567   -1.9212   -2.0846 H       1  UNL1        0.0000
     39 H          -4.7625    2.1095    1.4784 H       1  UNL1        0.0000
     40 H          -0.7338    2.7523    1.8658 H       1  UNL1        0.0000
     41 H           1.0701    1.2872    0.8590 H       1  UNL1        0.0000
     42 H           2.9930    1.9637    1.2656 H       1  UNL1        0.0000
@<TRIPOS>BOND
     1     1     2    1
     2     2     3    2
     3     3     4   ar
     4     4     5   ar
     5     5     6   ar
     6     6     7   ar
     7     7     8   ar
     8     8     9   ar
     9     9    10   ar
    10    10    11   ar
    11    11    12   ar
    12    12    13    1
    13    13    14   ar
    14    14    15   ar
    15    15    16   ar
    16    16    17   ar
    17    12    18   ar
    18    18    19   ar
    19    19    20   ar
    20    20    21   ar
    21    21    22   ar
    22    22    23   ar
    23    23    24   ar
    24    24    25   ar
    25    25    26   ar
    26    26    27   ar
    27    27    28    2
    28    28     1    1
    29    27     3   ar
    30    26     6   ar
    31    25     8   ar
    32    23    10   ar
    33    17    13   ar
    34    22    18   ar
    35     1    29    1
    36     1    30    1
    37     2    31    1
    38     4    32    1
    39     5    33    1
    40     9    34    1
    41    11    35    1
    42    14    36    1
    43    15    37    1
    44    16    38    1
    45    19    39    1
    46    21    40    1
    47    24    41    1
    48    28    42    1
