@<TRIPOS>MOLECULE
*****
 43 47 0 0 0
SMALL
GASTEIGER

@<TRIPOS>ATOM
      1 C          -2.9147   -1.8988   -1.1487 C.3     1  UNL1       -0.0516
      2 C          -2.5954   -0.4304   -0.7730 C.3     1  UNL1        0.0186
      3 C          -3.0795    0.5129   -1.9008 C.3     1  UNL1       -0.0516
      4 C          -3.3722   -0.0815    0.5154 C.ar    1  UNL1       -0.0162
      5 C          -4.7785   -0.1780    0.5734 C.ar    1  UNL1       -0.0560
      6 C          -5.4792    0.1459    1.7363 C.ar    1  UNL1       -0.0614
      7 C          -4.7899    0.5798    2.8616 C.ar    1  UNL1       -0.0600
      8 C          -3.4007    0.6835    2.8228 C.ar    1  UNL1       -0.0402
      9 C          -2.6861    0.3393    1.6662 C.ar    1  UNL1        0.0354
     10 N          -1.2968    0.5021    1.6376 N.pl3   1  UNL1       -0.3140
     11 C          -0.4848    0.1417    0.5564 C.ar    1  UNL1        0.0360
     12 C           0.9076    0.2978    0.6535 C.ar    1  UNL1       -0.0325
     13 C           1.7610    0.0029   -0.4205 C.ar    1  UNL1       -0.0160
     14 C           3.2195    0.1630   -0.2979 C.ar    1  UNL1       -0.0156
     15 C           3.9331    0.9678   -1.2090 C.ar    1  UNL1       -0.0519
     16 C           5.3216    1.1500   -1.1275 C.ar    1  UNL1       -0.0342
     17 C           5.9685    0.4871   -0.0871 C.ar    1  UNL1        0.0858
     18 N           7.2720    0.4162    0.3159 N.ar    1  UNL1       -0.2571
     19 N           7.4216   -0.3651    1.3979 N.ar    1  UNL1       -0.0673
     20 N           6.2195   -0.8229    1.7263 N.ar    1  UNL1       -0.1297
     21 C           5.3125   -0.3155    0.8343 C.ar    1  UNL1        0.1130
     22 C           3.9244   -0.4858    0.7364 C.ar    1  UNL1       -0.0247
     23 C           1.1791   -0.4425   -1.6123 C.ar    1  UNL1       -0.0536
     24 C          -0.2074   -0.5818   -1.7264 C.ar    1  UNL1       -0.0554
     25 C          -1.0626   -0.2864   -0.6476 C.ar    1  UNL1       -0.0162
     26 H          -2.4272   -2.2045   -2.0809 H       1  UNL1        0.0241
     27 H          -3.9874   -2.0662   -1.2953 H       1  UNL1        0.0241
     28 H          -2.5801   -2.5877   -0.3629 H       1  UNL1        0.0241
     29 H          -2.8640    1.5609   -1.6575 H       1  UNL1        0.0241
     30 H          -2.5965    0.2939   -2.8596 H       1  UNL1        0.0241
     31 H          -4.1586    0.4326   -2.0732 H       1  UNL1        0.0241
     32 H          -5.3478   -0.5040   -0.2936 H       1  UNL1        0.0621
     33 H          -6.5628    0.0654    1.7581 H       1  UNL1        0.0618
     34 H          -5.3309    0.8437    3.7660 H       1  UNL1        0.0618
     35 H          -2.8747    1.0394    3.7045 H       1  UNL1        0.0636
     36 H          -0.8392    0.5782    2.5358 H       1  UNL1        0.1522
     37 H           1.3338    0.6703    1.5828 H       1  UNL1        0.0642
     38 H           3.3928    1.4829   -2.0038 H       1  UNL1        0.0624
     39 H           5.8512    1.7768   -1.8365 H       1  UNL1        0.0639
     40 H           8.0905    0.8582   -0.0830 H       1  UNL1        0.1907
     41 H           3.4156   -1.1232    1.4525 H       1  UNL1        0.0646
     42 H           1.8037   -0.6928   -2.4675 H       1  UNL1        0.0624
     43 H          -0.6107   -0.9251   -2.6761 H       1  UNL1        0.0621
@<TRIPOS>BOND
     1     1     2    1
     2     2     3    1
     3     2     4    1
     4     4     5   ar
     5     5     6   ar
     6     6     7   ar
     7     7     8   ar
     8     8     9   ar
     9     9    10    1
    10    10    11    1
    11    11    12   ar
    12    12    13   ar
    13    13    14    1
    14    14    15   ar
    15    15    16   ar
    16    16    17   ar
    17    17    18   ar
    18    18    19   ar
    19    19    20   ar
    20    20    21   ar
    21    21    22   ar
    22    13    23   ar
    23    23    24   ar
    24    24    25   ar
    25    25     2    1
    26     9     4   ar
    27    25    11   ar
    28    22    14   ar
    29    21    17   ar
    30     1    26    1
    31     1    27    1
    32     1    28    1
    33     3    29    1
    34     3    30    1
    35     3    31    1
    36     5    32    1
    37     6    33    1
    38     7    34    1
    39     8    35    1
    40    10    36    1
    41    12    37    1
    42    15    38    1
    43    16    39    1
    44    18    40    1
    45    22    41    1
    46    23    42    1
    47    24    43    1
