@<TRIPOS>MOLECULE
*****
 47 51 0 0 0
SMALL
GASTEIGER

@<TRIPOS>ATOM
      1 C          -3.5913    0.5235   -2.2177 C.3     1  UNL1       -0.0516
      2 C          -3.1520   -0.4521   -1.0992 C.3     1  UNL1        0.0186
      3 C          -3.3123   -1.9129   -1.5891 C.3     1  UNL1       -0.0516
      4 C          -4.0828   -0.2450    0.1155 C.ar    1  UNL1       -0.0162
      5 C          -5.4750   -0.4508    0.0169 C.ar    1  UNL1       -0.0560
      6 C          -6.3156   -0.2543    1.1137 C.ar    1  UNL1       -0.0614
      7 C          -5.7833    0.1593    2.3284 C.ar    1  UNL1       -0.0600
      8 C          -4.4106    0.3702    2.4446 C.ar    1  UNL1       -0.0402
      9 C          -3.5554    0.1542    1.3544 C.ar    1  UNL1        0.0354
     10 N          -2.1885    0.4234    1.4838 N.pl3   1  UNL1       -0.3140
     11 C          -1.2431    0.1946    0.4780 C.ar    1  UNL1        0.0360
     12 C           0.1143    0.4508    0.7318 C.ar    1  UNL1       -0.0325
     13 C           1.0948    0.2832   -0.2575 C.ar    1  UNL1       -0.0161
     14 C           2.5141    0.5446    0.0283 C.ar    1  UNL1       -0.0158
     15 C           2.9308    1.7939    0.5216 C.ar    1  UNL1       -0.0532
     16 C           4.2760    2.0455    0.7996 C.ar    1  UNL1       -0.0484
     17 C           5.2216    1.0421    0.5832 C.ar    1  UNL1        0.0450
     18 C           6.6582    1.2859    0.8757 C.ar    1  UNL1        0.1894
     19 O           7.0592    2.3581    1.3140 O.2     1  UNL1       -0.2872
     20 C           7.6099    0.1775    0.6142 C.ar    1  UNL1        0.0017
     21 C           7.1251   -0.9775    0.1459 C.ar    1  UNL1        0.0058
     22 N           5.8017   -1.2160   -0.1041 N.ar    1  UNL1       -0.3604
     23 C           4.8389   -0.2139    0.0839 C.ar    1  UNL1        0.0507
     24 C           3.4864   -0.4522   -0.1828 C.ar    1  UNL1       -0.0300
     25 C           0.6780   -0.1349   -1.5258 C.ar    1  UNL1       -0.0536
     26 C          -0.6735   -0.3697   -1.7957 C.ar    1  UNL1       -0.0554
     27 C          -1.6567   -0.2038   -0.8016 C.ar    1  UNL1       -0.0162
     28 H          -2.9960    0.4029   -3.1297 H       1  UNL1        0.0241
     29 H          -3.4866    1.5667   -1.8941 H       1  UNL1        0.0241
     30 H          -4.6370    0.3752   -2.5095 H       1  UNL1        0.0241
     31 H          -2.7085   -2.1212   -2.4792 H       1  UNL1        0.0241
     32 H          -4.3473   -2.1492   -1.8596 H       1  UNL1        0.0241
     33 H          -3.0063   -2.6244   -0.8119 H       1  UNL1        0.0241
     34 H          -5.9238   -0.7633   -0.9228 H       1  UNL1        0.0621
     35 H          -7.3855   -0.4171    1.0145 H       1  UNL1        0.0618
     36 H          -6.4343    0.3249    3.1823 H       1  UNL1        0.0618
     37 H          -4.0092    0.7095    3.3955 H       1  UNL1        0.0636
     38 H          -1.8337    0.4820    2.4285 H       1  UNL1        0.1522
     39 H           0.4132    0.7805    1.7246 H       1  UNL1        0.0642
     40 H           2.2034    2.5878    0.6843 H       1  UNL1        0.0624
     41 H           4.5828    3.0169    1.1804 H       1  UNL1        0.0625
     42 H           8.6577    0.3539    0.8117 H       1  UNL1        0.0670
     43 H           7.7805   -1.8175   -0.0662 H       1  UNL1        0.0808
     44 H           5.5301   -2.0930   -0.5320 H       1  UNL1        0.1653
     45 H           3.1768   -1.4289   -0.5482 H       1  UNL1        0.0644
     46 H           1.4033   -0.2625   -2.3271 H       1  UNL1        0.0624
     47 H          -0.9485   -0.6772   -2.8019 H       1  UNL1        0.0621
@<TRIPOS>BOND
     1     1     2    1
     2     2     3    1
     3     2     4    1
     4     4     5   ar
     5     5     6   ar
     6     6     7   ar
     7     7     8   ar
     8     8     9   ar
     9     9    10    1
    10    10    11    1
    11    11    12   ar
    12    12    13   ar
    13    13    14    1
    14    14    15   ar
    15    15    16   ar
    16    16    17   ar
    17    17    18   ar
    18    18    19    2
    19    18    20   ar
    20    20    21   ar
    21    21    22   ar
    22    22    23   ar
    23    23    24   ar
    24    13    25   ar
    25    25    26   ar
    26    26    27   ar
    27    27     2    1
    28     9     4   ar
    29    27    11   ar
    30    24    14   ar
    31    23    17   ar
    32     1    28    1
    33     1    29    1
    34     1    30    1
    35     3    31    1
    36     3    32    1
    37     3    33    1
    38     5    34    1
    39     6    35    1
    40     7    36    1
    41     8    37    1
    42    10    38    1
    43    12    39    1
    44    15    40    1
    45    16    41    1
    46    20    42    1
    47    21    43    1
    48    22    44    1
    49    24    45    1
    50    25    46    1
    51    26    47    1
