@<TRIPOS>MOLECULE
*****
 50 55 0 0 0
SMALL
GASTEIGER

@<TRIPOS>ATOM
      1 C          -4.1835   -0.3598   -2.3076 C.3     1  UNL1       -0.0516
      2 C          -3.8810   -0.7237   -0.8338 C.3     1  UNL1        0.0186
      3 C          -4.3648   -2.1663   -0.5433 C.3     1  UNL1       -0.0516
      4 C          -4.6716    0.2431    0.0747 C.ar    1  UNL1       -0.0162
      5 C          -6.0800    0.3090    0.0266 C.ar    1  UNL1       -0.0560
      6 C          -6.7921    1.1894    0.8427 C.ar    1  UNL1       -0.0614
      7 C          -6.1113    2.0269    1.7171 C.ar    1  UNL1       -0.0600
      8 C          -4.7197    1.9780    1.7770 C.ar    1  UNL1       -0.0402
      9 C          -3.9968    1.0810    0.9774 C.ar    1  UNL1        0.0354
     10 N          -2.5982    1.0910    1.0183 N.pl3   1  UNL1       -0.3140
     11 C          -1.7847    0.2044    0.3033 C.ar    1  UNL1        0.0360
     12 C          -0.3903    0.2655    0.4588 C.ar    1  UNL1       -0.0325
     13 C           0.4709   -0.5669   -0.2715 C.ar    1  UNL1       -0.0161
     14 C           1.9299   -0.4964   -0.0900 C.ar    1  UNL1       -0.0159
     15 C           2.6592   -1.6360    0.2819 C.ar    1  UNL1       -0.0533
     16 C           4.0495   -1.5959    0.4628 C.ar    1  UNL1       -0.0514
     17 C           4.7378   -0.3837    0.2655 C.ar    1  UNL1        0.0090
     18 C           4.0034    0.7445   -0.1059 C.ar    1  UNL1        0.0492
     19 C           2.6137    0.7180   -0.2877 C.ar    1  UNL1       -0.0300
     20 N           4.8968    1.7830   -0.2383 N.ar    1  UNL1       -0.3390
     21 C           6.1653    1.3607    0.0389 C.ar    1  UNL1        0.1391
     22 N           7.2547    2.1503   -0.0029 N.ar    1  UNL1       -0.2375
     23 C           8.3925    1.4903    0.3127 C.ar    1  UNL1        0.0299
     24 C           8.4835    0.1458    0.6506 C.ar    1  UNL1       -0.0429
     25 C           7.3207   -0.6256    0.6780 C.ar    1  UNL1       -0.0490
     26 C           6.1084    0.0099    0.3583 C.ar    1  UNL1        0.0264
     27 C          -0.1014   -1.4602   -1.1833 C.ar    1  UNL1       -0.0536
     28 C          -1.4868   -1.5117   -1.3638 C.ar    1  UNL1       -0.0554
     29 C          -2.3508   -0.6769   -0.6294 C.ar    1  UNL1       -0.0162
     30 H          -5.2539   -0.4125   -2.5358 H       1  UNL1        0.0241
     31 H          -3.6839   -1.0345   -3.0116 H       1  UNL1        0.0241
     32 H          -3.8495    0.6596   -2.5382 H       1  UNL1        0.0241
     33 H          -5.4413   -2.2848   -0.7088 H       1  UNL1        0.0241
     34 H          -4.1605   -2.4478    0.4973 H       1  UNL1        0.0241
     35 H          -3.8737   -2.9063   -1.1847 H       1  UNL1        0.0241
     36 H          -6.6414   -0.3251   -0.6553 H       1  UNL1        0.0621
     37 H          -7.8770    1.2244    0.7877 H       1  UNL1        0.0618
     38 H          -6.6596    2.7222    2.3465 H       1  UNL1        0.0618
     39 H          -4.1982    2.6501    2.4529 H       1  UNL1        0.0636
     40 H          -2.1808    1.5208    1.8326 H       1  UNL1        0.1522
     41 H           0.0333    0.9708    1.1705 H       1  UNL1        0.0642
     42 H           2.1419   -2.5796    0.4483 H       1  UNL1        0.0624
     43 H           4.5857   -2.4940    0.7546 H       1  UNL1        0.0624
     44 H           2.0774    1.6143   -0.5878 H       1  UNL1        0.0644
     45 H           4.6698    2.7292   -0.5011 H       1  UNL1        0.1673
     46 H           9.2894    2.1053    0.2866 H       1  UNL1        0.0830
     47 H           9.4450   -0.2957    0.8891 H       1  UNL1        0.0633
     48 H           7.3530   -1.6782    0.9372 H       1  UNL1        0.0625
     49 H           0.5322   -2.1143   -1.7792 H       1  UNL1        0.0624
     50 H          -1.8811   -2.2118   -2.0963 H       1  UNL1        0.0621
@<TRIPOS>BOND
     1     1     2    1
     2     2     3    1
     3     2     4    1
     4     4     5   ar
     5     5     6   ar
     6     6     7   ar
     7     7     8   ar
     8     8     9   ar
     9     9    10    1
    10    10    11    1
    11    11    12   ar
    12    12    13   ar
    13    13    14    1
    14    14    15   ar
    15    15    16   ar
    16    16    17   ar
    17    17    18   ar
    18    18    19   ar
    19    18    20   ar
    20    20    21   ar
    21    21    22   ar
    22    22    23   ar
    23    23    24   ar
    24    24    25   ar
    25    25    26   ar
    26    13    27   ar
    27    27    28   ar
    28    28    29   ar
    29    29     2    1
    30     9     4   ar
    31    29    11   ar
    32    19    14   ar
    33    26    21   ar
    34    26    17   ar
    35     1    30    1
    36     1    31    1
    37     1    32    1
    38     3    33    1
    39     3    34    1
    40     3    35    1
    41     5    36    1
    42     6    37    1
    43     7    38    1
    44     8    39    1
    45    10    40    1
    46    12    41    1
    47    15    42    1
    48    16    43    1
    49    19    44    1
    50    20    45    1
    51    23    46    1
    52    24    47    1
    53    25    48    1
    54    27    49    1
    55    28    50    1
