@<TRIPOS>MOLECULE
*****
 47 51 0 0 0
SMALL
GASTEIGER

@<TRIPOS>ATOM
      1 C          -3.7300   -2.0172    0.1721 C.3     1  UNL1       -0.0516
      2 C          -3.2946   -0.6686   -0.4508 C.3     1  UNL1        0.0186
      3 C          -3.6755   -0.6407   -1.9519 C.3     1  UNL1       -0.0516
      4 C          -4.0632    0.4643    0.2638 C.ar    1  UNL1       -0.0162
      5 C          -5.4726    0.5217    0.2426 C.ar    1  UNL1       -0.0560
      6 C          -6.1657    1.5420    0.8958 C.ar    1  UNL1       -0.0614
      7 C          -5.4652    2.5205    1.5897 C.ar    1  UNL1       -0.0600
      8 C          -4.0726    2.4792    1.6239 C.ar    1  UNL1       -0.0402
      9 C          -3.3665    1.4710    0.9518 C.ar    1  UNL1        0.0354
     10 N          -1.9712    1.4226    1.0478 N.pl3   1  UNL1       -0.3140
     11 C          -1.1693    0.4925    0.3764 C.ar    1  UNL1        0.0360
     12 C           0.2281    0.5656    0.5004 C.ar    1  UNL1       -0.0325
     13 C           1.0756   -0.3722   -0.1097 C.ar    1  UNL1       -0.0161
     14 C           2.5390   -0.2765    0.0228 C.ar    1  UNL1       -0.0171
     15 C           3.1452   -0.1612    1.2860 C.ar    1  UNL1       -0.0533
     16 C           4.5346   -0.0692    1.4169 C.ar    1  UNL1       -0.0497
     17 C           5.3453   -0.0924    0.2787 C.ar    1  UNL1        0.0325
     18 C           4.7651   -0.2088   -0.9825 C.ar    1  UNL1        0.0330
     19 C           3.3711   -0.2993   -1.1097 C.ar    1  UNL1       -0.0425
     20 C           5.6099   -0.2383   -2.1929 C.2     1  UNL1        0.1869
     21 O           5.1319   -0.3471   -3.3143 O.2     1  UNL1       -0.2873
     22 C           7.0716   -0.1346   -2.0149 C.2     1  UNL1       -0.0107
     23 C           7.6268   -0.0217   -0.8061 C.2     1  UNL1       -0.0107
     24 C           6.8111    0.0066    0.4236 C.2     1  UNL1        0.1869
     25 O           7.3480    0.1104    1.5185 O.2     1  UNL1       -0.2873
     26 C           0.4809   -1.4052   -0.8428 C.ar    1  UNL1       -0.0536
     27 C          -0.9097   -1.5011   -0.9525 C.ar    1  UNL1       -0.0554
     28 C          -1.7580   -0.5594   -0.3399 C.ar    1  UNL1       -0.0162
     29 H          -4.8104   -2.1808    0.0917 H       1  UNL1        0.0241
     30 H          -3.2508   -2.8728   -0.3166 H       1  UNL1        0.0241
     31 H          -3.4706   -2.0612    1.2373 H       1  UNL1        0.0241
     32 H          -3.1963   -1.4476   -2.5172 H       1  UNL1        0.0241
     33 H          -3.3760    0.3072   -2.4164 H       1  UNL1        0.0241
     34 H          -4.7536   -0.7556   -2.1093 H       1  UNL1        0.0241
     35 H          -6.0502   -0.2353   -0.2823 H       1  UNL1        0.0621
     36 H          -7.2519    1.5657    0.8675 H       1  UNL1        0.0618
     37 H          -6.0000    3.3105    2.1095 H       1  UNL1        0.0618
     38 H          -3.5374    3.2410    2.1842 H       1  UNL1        0.0636
     39 H          -1.5179    2.2794    1.3349 H       1  UNL1        0.1522
     40 H           0.6623    1.3784    1.0785 H       1  UNL1        0.0642
     41 H           2.5330   -0.1554    2.1874 H       1  UNL1        0.0624
     42 H           4.9772    0.0165    2.4080 H       1  UNL1        0.0625
     43 H           2.9304   -0.3770   -2.1038 H       1  UNL1        0.0631
     44 H           7.6681   -0.1562   -2.9198 H       1  UNL1        0.0657
     45 H           8.6999    0.0539   -0.6728 H       1  UNL1        0.0657
     46 H           1.0958   -2.1628   -1.3250 H       1  UNL1        0.0624
     47 H          -1.3217   -2.3313   -1.5215 H       1  UNL1        0.0621
@<TRIPOS>BOND
     1     1     2    1
     2     2     3    1
     3     2     4    1
     4     4     5   ar
     5     5     6   ar
     6     6     7   ar
     7     7     8   ar
     8     8     9   ar
     9     9    10    1
    10    10    11    1
    11    11    12   ar
    12    12    13   ar
    13    13    14    1
    14    14    15   ar
    15    15    16   ar
    16    16    17   ar
    17    17    18   ar
    18    18    19   ar
    19    18    20    1
    20    20    21    2
    21    20    22    1
    22    22    23    2
    23    23    24    1
    24    24    25    2
    25    13    26   ar
    26    26    27   ar
    27    27    28   ar
    28    28     2    1
    29     9     4   ar
    30    28    11   ar
    31    19    14   ar
    32    24    17    1
    33     1    29    1
    34     1    30    1
    35     1    31    1
    36     3    32    1
    37     3    33    1
    38     3    34    1
    39     5    35    1
    40     6    36    1
    41     7    37    1
    42     8    38    1
    43    10    39    1
    44    12    40    1
    45    15    41    1
    46    16    42    1
    47    19    43    1
    48    22    44    1
    49    23    45    1
    50    26    46    1
    51    27    47    1
