@<TRIPOS>MOLECULE
*****
 45 49 0 0 0
SMALL
GASTEIGER

@<TRIPOS>ATOM
      1 C          -3.2407   -2.2374    0.2617 C.3     1  UNL1       -0.0516
      2 C          -2.8443   -0.8084    0.7054 C.3     1  UNL1        0.0186
      3 C          -3.0814   -0.6508    2.2280 C.3     1  UNL1       -0.0516
      4 C          -3.7556    0.1968   -0.0320 C.ar    1  UNL1       -0.0162
      5 C          -5.1570    0.1703    0.1272 C.ar    1  UNL1       -0.0560
      6 C          -5.9797    1.0745   -0.5465 C.ar    1  UNL1       -0.0614
      7 C          -5.4195    2.0179   -1.3984 C.ar    1  UNL1       -0.0600
      8 C          -4.0370    2.0581   -1.5703 C.ar    1  UNL1       -0.0402
      9 C          -3.2006    1.1686   -0.8804 C.ar    1  UNL1        0.0354
     10 N          -1.8208    1.1957   -1.1131 N.pl3   1  UNL1       -0.3140
     11 C          -0.8949    0.3895   -0.4412 C.ar    1  UNL1        0.0360
     12 C           0.4755    0.5342   -0.7137 C.ar    1  UNL1       -0.0325
     13 C           1.4407   -0.2834   -0.1061 C.ar    1  UNL1       -0.0161
     14 C           2.8744   -0.1128   -0.3956 C.ar    1  UNL1       -0.0171
     15 C           3.3458   -0.1211   -1.7381 C.ar    1  UNL1       -0.0533
     16 C           4.7025    0.0393   -2.0491 C.ar    1  UNL1       -0.0483
     17 C           5.5716    0.2065   -0.9929 C.ar    1  UNL1        0.0492
     18 C           5.1333    0.2155    0.3191 C.ar    1  UNL1        0.0498
     19 C           3.8007    0.0597    0.6505 C.ar    1  UNL1       -0.0412
     20 C           6.3054    0.4105    1.1714 C.2     1  UNL1        0.2513
     21 O           6.2940    0.4663    2.3840 O.2     1  UNL1       -0.2698
     22 N           7.3753    0.5090    0.3358 N.am    1  UNL1       -0.2483
     23 C           7.0215    0.3961   -0.9736 C.2     1  UNL1        0.2512
     24 O           7.7401    0.4399   -1.9510 O.2     1  UNL1       -0.2698
     25 C           0.9940   -1.2703    0.7794 C.ar    1  UNL1       -0.0536
     26 C          -0.3696   -1.4387    1.0390 C.ar    1  UNL1       -0.0554
     27 C          -1.3367   -0.6176    0.4288 C.ar    1  UNL1       -0.0162
     28 H          -4.2943   -2.4574    0.4669 H       1  UNL1        0.0241
     29 H          -3.0815   -2.3739   -0.8153 H       1  UNL1        0.0241
     30 H          -2.6578   -3.0080    0.7785 H       1  UNL1        0.0241
     31 H          -2.4946   -1.3651    2.8160 H       1  UNL1        0.0241
     32 H          -4.1288   -0.8145    2.5046 H       1  UNL1        0.0241
     33 H          -2.8067    0.3560    2.5670 H       1  UNL1        0.0241
     34 H          -5.6272   -0.5629    0.7781 H       1  UNL1        0.0621
     35 H          -7.0572    1.0348   -0.4099 H       1  UNL1        0.0618
     36 H          -6.0559    2.7167   -1.9340 H       1  UNL1        0.0618
     37 H          -3.6131    2.7900   -2.2524 H       1  UNL1        0.0636
     38 H          -1.4592    2.0448   -1.5256 H       1  UNL1        0.1522
     39 H           0.7945    1.3081   -1.4085 H       1  UNL1        0.0642
     40 H           2.6385   -0.2688   -2.5549 H       1  UNL1        0.0624
     41 H           5.0564    0.0289   -3.0748 H       1  UNL1        0.0625
     42 H           3.4901    0.0828    1.6915 H       1  UNL1        0.0631
     43 H           8.3220    0.6466    0.6511 H       1  UNL1        0.1581
     44 H           1.7041   -1.9362    1.2660 H       1  UNL1        0.0624
     45 H          -0.6661   -2.2301    1.7234 H       1  UNL1        0.0621
@<TRIPOS>BOND
     1     1     2    1
     2     2     3    1
     3     2     4    1
     4     4     5   ar
     5     5     6   ar
     6     6     7   ar
     7     7     8   ar
     8     8     9   ar
     9     9    10    1
    10    10    11    1
    11    11    12   ar
    12    12    13   ar
    13    13    14    1
    14    14    15   ar
    15    15    16   ar
    16    16    17   ar
    17    17    18   ar
    18    18    19   ar
    19    18    20    1
    20    20    21    2
    21    20    22   am
    22    22    23   am
    23    23    24    2
    24    13    25   ar
    25    25    26   ar
    26    26    27   ar
    27    27     2    1
    28     9     4   ar
    29    27    11   ar
    30    19    14   ar
    31    23    17    1
    32     1    28    1
    33     1    29    1
    34     1    30    1
    35     3    31    1
    36     3    32    1
    37     3    33    1
    38     5    34    1
    39     6    35    1
    40     7    36    1
    41     8    37    1
    42    10    38    1
    43    12    39    1
    44    15    40    1
    45    16    41    1
    46    19    42    1
    47    22    43    1
    48    25    44    1
    49    26    45    1
