@<TRIPOS>MOLECULE
*****
 50 55 0 0 0
SMALL
GASTEIGER

@<TRIPOS>ATOM
      1 C          -4.2344   -0.6383    2.2686 C.3     1  UNL1       -0.0516
      2 C          -3.9805   -0.6706    0.7419 C.3     1  UNL1        0.0186
      3 C          -4.4928   -2.0100    0.1565 C.3     1  UNL1       -0.0516
      4 C          -4.7839    0.4785    0.0943 C.ar    1  UNL1       -0.0162
      5 C          -6.1890    0.5436    0.2025 C.ar    1  UNL1       -0.0560
      6 C          -6.9122    1.5882   -0.3754 C.ar    1  UNL1       -0.0614
      7 C          -6.2457    2.5923   -1.0663 C.ar    1  UNL1       -0.0600
      8 C          -4.8576    2.5462   -1.1822 C.ar    1  UNL1       -0.0402
      9 C          -4.1242    1.4896   -0.6234 C.ar    1  UNL1        0.0354
     10 N          -2.7283    1.4931   -0.7122 N.pl3   1  UNL1       -0.3140
     11 C          -1.9061    0.4669   -0.2342 C.ar    1  UNL1        0.0360
     12 C          -0.5166    0.5468   -0.4230 C.ar    1  UNL1       -0.0325
     13 C           0.3548   -0.4299    0.0824 C.ar    1  UNL1       -0.0161
     14 C           1.8076   -0.3373   -0.1337 C.ar    1  UNL1       -0.0167
     15 C           2.3357   -0.2379   -1.4229 C.ar    1  UNL1       -0.0534
     16 C           3.7169   -0.1506   -1.6387 C.ar    1  UNL1       -0.0524
     17 C           4.6229   -0.1594   -0.5487 C.ar    1  UNL1       -0.0031
     18 C           4.0872   -0.2583    0.7342 C.ar    1  UNL1        0.0211
     19 C           2.6960   -0.3478    0.9545 C.ar    1  UNL1       -0.0397
     20 S           5.3159   -0.2526    1.9310 S.2     1  UNL1       -0.0882
     21 C           6.5752   -0.1222    0.7742 C.ar    1  UNL1        0.0205
     22 C           7.9588   -0.0598    1.0369 C.ar    1  UNL1       -0.0474
     23 C           8.8492    0.0456   -0.0331 C.ar    1  UNL1       -0.0607
     24 C           8.3789    0.0884   -1.3367 C.ar    1  UNL1       -0.0611
     25 C           7.0056    0.0262   -1.5915 C.ar    1  UNL1       -0.0529
     26 C           6.0722   -0.0813   -0.5267 C.ar    1  UNL1       -0.0031
     27 C          -0.2026   -1.4913    0.8034 C.ar    1  UNL1       -0.0536
     28 C          -1.5825   -1.5704    1.0136 C.ar    1  UNL1       -0.0554
     29 C          -2.4564   -0.5912    0.5038 C.ar    1  UNL1       -0.0162
     30 H          -3.8790    0.3025    2.7072 H       1  UNL1        0.0241
     31 H          -5.2982   -0.7319    2.5135 H       1  UNL1        0.0241
     32 H          -3.7243   -1.4556    2.7905 H       1  UNL1        0.0241
     33 H          -3.9929   -2.8767    0.6029 H       1  UNL1        0.0241
     34 H          -4.3237   -2.0565   -0.9266 H       1  UNL1        0.0241
     35 H          -5.5654   -2.1545    0.3265 H       1  UNL1        0.0241
     36 H          -6.7388   -0.2208    0.7463 H       1  UNL1        0.0621
     37 H          -7.9942    1.6191   -0.2779 H       1  UNL1        0.0618
     38 H          -6.8025    3.4136   -1.5086 H       1  UNL1        0.0618
     39 H          -4.3470    3.3460   -1.7116 H       1  UNL1        0.0636
     40 H          -2.3253    2.1067   -1.4066 H       1  UNL1        0.1522
     41 H          -0.1039    1.3962   -0.9630 H       1  UNL1        0.0642
     42 H           1.6724   -0.2398   -2.2863 H       1  UNL1        0.0624
     43 H           4.0918   -0.0787   -2.6566 H       1  UNL1        0.0624
     44 H           2.3165   -0.4125    1.9719 H       1  UNL1        0.0635
     45 H           8.3292   -0.0931    2.0577 H       1  UNL1        0.0629
     46 H           9.9182    0.0943    0.1602 H       1  UNL1        0.0618
     47 H           9.0783    0.1705   -2.1652 H       1  UNL1        0.0618
     48 H           6.6535    0.0610   -2.6193 H       1  UNL1        0.0624
     49 H           0.4362   -2.2747    1.2070 H       1  UNL1        0.0624
     50 H          -1.9650   -2.4117    1.5865 H       1  UNL1        0.0621
@<TRIPOS>BOND
     1     1     2    1
     2     2     3    1
     3     2     4    1
     4     4     5   ar
     5     5     6   ar
     6     6     7   ar
     7     7     8   ar
     8     8     9   ar
     9     9    10    1
    10    10    11    1
    11    11    12   ar
    12    12    13   ar
    13    13    14    1
    14    14    15   ar
    15    15    16   ar
    16    16    17   ar
    17    17    18   ar
    18    18    19   ar
    19    18    20   ar
    20    20    21   ar
    21    21    22   ar
    22    22    23   ar
    23    23    24   ar
    24    24    25   ar
    25    25    26   ar
    26    13    27   ar
    27    27    28   ar
    28    28    29   ar
    29    29     2    1
    30     9     4   ar
    31    29    11   ar
    32    19    14   ar
    33    26    21   ar
    34    26    17   ar
    35     1    30    1
    36     1    31    1
    37     1    32    1
    38     3    33    1
    39     3    34    1
    40     3    35    1
    41     5    36    1
    42     6    37    1
    43     7    38    1
    44     8    39    1
    45    10    40    1
    46    12    41    1
    47    15    42    1
    48    16    43    1
    49    19    44    1
    50    22    45    1
    51    23    46    1
    52    24    47    1
    53    25    48    1
    54    27    49    1
    55    28    50    1
