@<TRIPOS>MOLECULE
*****
 45 49 0 0 0
SMALL
GASTEIGER

@<TRIPOS>ATOM
      1 C          -3.3785    2.0621    0.5315 C.3     1  UNL1       -0.0516
      2 C          -2.9504    0.9469   -0.4546 C.3     1  UNL1        0.0186
      3 C          -3.3174    1.3610   -1.9003 C.3     1  UNL1       -0.0516
      4 C          -3.7369   -0.3353   -0.1049 C.ar    1  UNL1       -0.0162
      5 C          -5.1474   -0.3571   -0.1156 C.ar    1  UNL1       -0.0560
      6 C          -5.8561   -1.5195    0.1923 C.ar    1  UNL1       -0.0614
      7 C          -5.1699   -2.6850    0.5094 C.ar    1  UNL1       -0.0600
      8 C          -3.7763   -2.6835    0.5232 C.ar    1  UNL1       -0.0402
      9 C          -3.0558   -1.5150    0.2369 C.ar    1  UNL1        0.0354
     10 N          -1.6576   -1.5544    0.2074 N.pl3   1  UNL1       -0.3140
     11 C          -0.8437   -0.4382   -0.0160 C.ar    1  UNL1        0.0360
     12 C           0.5532   -0.5790    0.0289 C.ar    1  UNL1       -0.0325
     13 C           1.4143    0.4958   -0.2407 C.ar    1  UNL1       -0.0160
     14 C           2.8756    0.3331   -0.1792 C.ar    1  UNL1       -0.0157
     15 C           3.6924    0.7046   -1.2527 C.ar    1  UNL1       -0.0519
     16 C           5.0789    0.5428   -1.1819 C.ar    1  UNL1       -0.0337
     17 C           5.6863    0.0127   -0.0534 C.ar    1  UNL1        0.0892
     18 N           7.0266   -0.1282   -0.0224 N.ar    1  UNL1       -0.2519
     19 C           7.5482   -0.6505    1.1081 C.ar    1  UNL1        0.0464
     20 C           6.7611   -1.0233    2.1777 C.ar    1  UNL1        0.0464
     21 N           5.4174   -0.8905    2.1644 N.ar    1  UNL1       -0.2519
     22 C           4.8769   -0.3697    1.0440 C.ar    1  UNL1        0.0897
     23 C           3.4987   -0.2026    0.9600 C.ar    1  UNL1       -0.0265
     24 C           0.8354    1.7248   -0.5757 C.ar    1  UNL1       -0.0536
     25 C          -0.5536    1.8708   -0.6436 C.ar    1  UNL1       -0.0554
     26 C          -1.4159    0.7918   -0.3715 C.ar    1  UNL1       -0.0162
     27 H          -3.1282    1.7910    1.5649 H       1  UNL1        0.0241
     28 H          -4.4561    2.2565    0.4964 H       1  UNL1        0.0241
     29 H          -2.8880    3.0178    0.3163 H       1  UNL1        0.0241
     30 H          -2.8235    2.2911   -2.2027 H       1  UNL1        0.0241
     31 H          -3.0234    0.5857   -2.6188 H       1  UNL1        0.0241
     32 H          -4.3933    1.5288   -2.0225 H       1  UNL1        0.0241
     33 H          -5.7135    0.5356   -0.3704 H       1  UNL1        0.0621
     34 H          -6.9428   -1.5138    0.1763 H       1  UNL1        0.0618
     35 H          -5.7161   -3.5956    0.7390 H       1  UNL1        0.0618
     36 H          -3.2515   -3.6057    0.7571 H       1  UNL1        0.0636
     37 H          -1.2244   -2.3389    0.6751 H       1  UNL1        0.1522
     38 H           0.9770   -1.5527    0.2660 H       1  UNL1        0.0642
     39 H           3.2560    1.1126   -2.1627 H       1  UNL1        0.0624
     40 H           5.6982    0.8334   -2.0269 H       1  UNL1        0.0640
     41 H           8.6260   -0.7614    1.1288 H       1  UNL1        0.0845
     42 H           7.1897   -1.4416    3.0809 H       1  UNL1        0.0845
     43 H           2.8982   -0.4918    1.8207 H       1  UNL1        0.0645
     44 H           1.4629    2.5895   -0.7831 H       1  UNL1        0.0624
     45 H          -0.9529    2.8451   -0.9153 H       1  UNL1        0.0621
@<TRIPOS>BOND
     1     1     2    1
     2     2     3    1
     3     2     4    1
     4     4     5   ar
     5     5     6   ar
     6     6     7   ar
     7     7     8   ar
     8     8     9   ar
     9     9    10    1
    10    10    11    1
    11    11    12   ar
    12    12    13   ar
    13    13    14    1
    14    14    15   ar
    15    15    16   ar
    16    16    17   ar
    17    17    18   ar
    18    18    19   ar
    19    19    20   ar
    20    20    21   ar
    21    21    22   ar
    22    22    23   ar
    23    13    24   ar
    24    24    25   ar
    25    25    26   ar
    26    26     2    1
    27     9     4   ar
    28    26    11   ar
    29    23    14   ar
    30    22    17   ar
    31     1    27    1
    32     1    28    1
    33     1    29    1
    34     3    30    1
    35     3    31    1
    36     3    32    1
    37     5    33    1
    38     6    34    1
    39     7    35    1
    40     8    36    1
    41    10    37    1
    42    12    38    1
    43    15    39    1
    44    16    40    1
    45    19    41    1
    46    20    42    1
    47    23    43    1
    48    24    44    1
    49    25    45    1
