@<TRIPOS>MOLECULE
*****
 42 45 0 0 0
SMALL
GASTEIGER

@<TRIPOS>ATOM
      1 C          -3.1775    1.2830   -0.1861 C.3     1  UNL1       -0.0516
      2 C          -2.0848    0.6788   -1.1010 C.3     1  UNL1        0.0186
      3 C          -1.8910    1.5795   -2.3463 C.3     1  UNL1       -0.0516
      4 C          -2.5670   -0.7081   -1.5786 C.ar    1  UNL1       -0.0162
      5 C          -3.7543   -0.8548   -2.3263 C.ar    1  UNL1       -0.0560
      6 C          -4.1916   -2.1100   -2.7523 C.ar    1  UNL1       -0.0614
      7 C          -3.4560   -3.2443   -2.4330 C.ar    1  UNL1       -0.0600
      8 C          -2.2816   -3.1195   -1.6931 C.ar    1  UNL1       -0.0402
      9 C          -1.8215   -1.8603   -1.2811 C.ar    1  UNL1        0.0354
     10 N          -0.6708   -1.7712   -0.4886 N.pl3   1  UNL1       -0.3140
     11 C          -0.0969   -0.5634   -0.0736 C.ar    1  UNL1        0.0360
     12 C           1.0918   -0.5843    0.6736 C.ar    1  UNL1       -0.0325
     13 C           1.6753    0.5954    1.1571 C.ar    1  UNL1       -0.0149
     14 C           2.9223    0.5625    1.9376 C.ar    1  UNL1       -0.0005
     15 C           2.8733    0.8493    3.3155 C.ar    1  UNL1       -0.0528
     16 C           4.0280    0.8315    4.1009 C.ar    1  UNL1       -0.0611
     17 C           5.2569    0.5277    3.5244 C.ar    1  UNL1       -0.0605
     18 C           5.3312    0.2417    2.1617 C.ar    1  UNL1       -0.0438
     19 C           4.1743    0.2573    1.3650 C.ar    1  UNL1        0.0595
     20 C           4.3127   -0.0360   -0.0348 C.1     1  UNL1        0.0998
     21 N           4.4577   -0.2885   -1.1587 N.1     1  UNL1       -0.1909
     22 C           1.0269    1.8066    0.8969 C.ar    1  UNL1       -0.0536
     23 C          -0.1705    1.8346    0.1772 C.ar    1  UNL1       -0.0554
     24 C          -0.7564    0.6514   -0.3133 C.ar    1  UNL1       -0.0162
     25 H          -3.3333    0.6616    0.7047 H       1  UNL1        0.0241
     26 H          -4.1431    1.3707   -0.6965 H       1  UNL1        0.0241
     27 H          -2.9182    2.2901    0.1592 H       1  UNL1        0.0241
     28 H          -1.5873    2.5977   -2.0795 H       1  UNL1        0.0241
     29 H          -1.1193    1.1712   -3.0110 H       1  UNL1        0.0241
     30 H          -2.8100    1.6786   -2.9344 H       1  UNL1        0.0241
     31 H          -4.3577    0.0122   -2.5838 H       1  UNL1        0.0621
     32 H          -5.1099   -2.1996   -3.3267 H       1  UNL1        0.0618
     33 H          -3.7972   -4.2250   -2.7522 H       1  UNL1        0.0618
     34 H          -1.7242   -4.0158   -1.4351 H       1  UNL1        0.0636
     35 H          -0.0415   -2.5614   -0.5429 H       1  UNL1        0.1522
     36 H           1.5658   -1.5402    0.8863 H       1  UNL1        0.0642
     37 H           1.9197    1.0834    3.7876 H       1  UNL1        0.0624
     38 H           3.9643    1.0538    5.1636 H       1  UNL1        0.0618
     39 H           6.1568    0.5136    4.1347 H       1  UNL1        0.0618
     40 H           6.2990    0.0075    1.7205 H       1  UNL1        0.0631
     41 H           1.4485    2.7436    1.2558 H       1  UNL1        0.0624
     42 H          -0.6429    2.7991    0.0064 H       1  UNL1        0.0621
@<TRIPOS>BOND
     1     1     2    1
     2     2     3    1
     3     2     4    1
     4     4     5   ar
     5     5     6   ar
     6     6     7   ar
     7     7     8   ar
     8     8     9   ar
     9     9    10    1
    10    10    11    1
    11    11    12   ar
    12    12    13   ar
    13    13    14    1
    14    14    15   ar
    15    15    16   ar
    16    16    17   ar
    17    17    18   ar
    18    18    19   ar
    19    19    20    1
    20    20    21    3
    21    13    22   ar
    22    22    23   ar
    23    23    24   ar
    24    24     2    1
    25     9     4   ar
    26    24    11   ar
    27    19    14   ar
    28     1    25    1
    29     1    26    1
    30     1    27    1
    31     3    28    1
    32     3    29    1
    33     3    30    1
    34     5    31    1
    35     6    32    1
    36     7    33    1
    37     8    34    1
    38    10    35    1
    39    12    36    1
    40    15    37    1
    41    16    38    1
    42    17    39    1
    43    18    40    1
    44    22    41    1
    45    23    42    1
