@<TRIPOS>MOLECULE
*****
 45 49 0 0 0
SMALL
GASTEIGER

@<TRIPOS>ATOM
      1 C          -3.2395    2.5279    0.1315 C.3     1  UNL1       -0.0516
      2 C          -2.9066    1.1863   -0.5652 C.3     1  UNL1        0.0186
      3 C          -3.2385    1.2865   -2.0749 C.3     1  UNL1       -0.0516
      4 C          -3.7972    0.0866    0.0532 C.ar    1  UNL1       -0.0162
      5 C          -5.2046    0.1609   -0.0088 C.ar    1  UNL1       -0.0560
      6 C          -6.0077   -0.8298    0.5584 C.ar    1  UNL1       -0.0614
      7 C          -5.4212   -1.9101    1.2053 C.ar    1  UNL1       -0.0600
      8 C          -4.0324   -1.9999    1.2785 C.ar    1  UNL1       -0.0402
      9 C          -3.2169   -1.0209    0.6926 C.ar    1  UNL1        0.0354
     10 N          -1.8268   -1.1087    0.8253 N.pl3   1  UNL1       -0.3140
     11 C          -0.9228   -0.2163    0.2387 C.ar    1  UNL1        0.0360
     12 C           0.4575   -0.4273    0.3922 C.ar    1  UNL1       -0.0325
     13 C           1.4061    0.4667   -0.1289 C.ar    1  UNL1       -0.0146
     14 C           2.8464    0.2250    0.0337 C.ar    1  UNL1        0.0023
     15 C           3.7070    1.1980    0.5330 C.ar    1  UNL1        0.0361
     16 N           5.0400    1.0332    0.7024 N.ar    1  UNL1       -0.2528
     17 C           5.5600   -0.1627    0.3649 C.ar    1  UNL1        0.0892
     18 C           6.9183   -0.3918    0.5177 C.ar    1  UNL1       -0.0328
     19 C           7.4807   -1.6194    0.1763 C.ar    1  UNL1       -0.0415
     20 C           6.6432   -2.5995   -0.3180 C.ar    1  UNL1        0.0284
     21 N           5.3153   -2.4288   -0.4859 N.ar    1  UNL1       -0.2534
     22 C           4.7939   -1.2301   -0.1484 C.ar    1  UNL1        0.0897
     23 C           3.4342   -1.0020   -0.3035 C.ar    1  UNL1       -0.0251
     24 C           0.9312    1.5976   -0.8030 C.ar    1  UNL1       -0.0536
     25 C          -0.4410    1.8278   -0.9434 C.ar    1  UNL1       -0.0554
     26 C          -1.3903    0.9298   -0.4200 C.ar    1  UNL1       -0.0162
     27 H          -4.2976    2.7946    0.0326 H       1  UNL1        0.0241
     28 H          -3.0124    2.4818    1.2040 H       1  UNL1        0.0241
     29 H          -2.6696    3.3647   -0.2876 H       1  UNL1        0.0241
     30 H          -2.6700    2.0793   -2.5734 H       1  UNL1        0.0241
     31 H          -4.2961    1.5095   -2.2538 H       1  UNL1        0.0241
     32 H          -3.0103    0.3457   -2.5913 H       1  UNL1        0.0241
     33 H          -5.6943    0.9992   -0.4985 H       1  UNL1        0.0621
     34 H          -7.0902   -0.7513    0.5001 H       1  UNL1        0.0618
     35 H          -6.0415   -2.6784    1.6583 H       1  UNL1        0.0618
     36 H          -3.5865   -2.8416    1.8013 H       1  UNL1        0.0636
     37 H          -1.4612   -2.0159    1.0808 H       1  UNL1        0.1522
     38 H           0.7968   -1.3021    0.9435 H       1  UNL1        0.0642
     39 H           3.3361    2.1753    0.8340 H       1  UNL1        0.0836
     40 H           7.5475    0.4026    0.9100 H       1  UNL1        0.0640
     41 H           8.5429   -1.8003    0.2949 H       1  UNL1        0.0633
     42 H           7.0259   -3.5761   -0.6010 H       1  UNL1        0.0830
     43 H           2.8245   -1.8056   -0.7109 H       1  UNL1        0.0646
     44 H           1.6258    2.3145   -1.2372 H       1  UNL1        0.0624
     45 H          -0.7581    2.7250   -1.4699 H       1  UNL1        0.0621
@<TRIPOS>BOND
     1     1     2    1
     2     2     3    1
     3     2     4    1
     4     4     5   ar
     5     5     6   ar
     6     6     7   ar
     7     7     8   ar
     8     8     9   ar
     9     9    10    1
    10    10    11    1
    11    11    12   ar
    12    12    13   ar
    13    13    14    1
    14    14    15   ar
    15    15    16   ar
    16    16    17   ar
    17    17    18   ar
    18    18    19   ar
    19    19    20   ar
    20    20    21   ar
    21    21    22   ar
    22    22    23   ar
    23    13    24   ar
    24    24    25   ar
    25    25    26   ar
    26    26     2    1
    27     9     4   ar
    28    26    11   ar
    29    23    14   ar
    30    22    17   ar
    31     1    27    1
    32     1    28    1
    33     1    29    1
    34     3    30    1
    35     3    31    1
    36     3    32    1
    37     5    33    1
    38     6    34    1
    39     7    35    1
    40     8    36    1
    41    10    37    1
    42    12    38    1
    43    15    39    1
    44    18    40    1
    45    19    41    1
    46    20    42    1
    47    23    43    1
    48    24    44    1
    49    25    45    1
