@<TRIPOS>MOLECULE
*****
 45 49 0 0 0
SMALL
GASTEIGER

@<TRIPOS>ATOM
      1 C          -3.4500    1.1923    1.9029 C.3     1  UNL1       -0.0516
      2 C          -2.9649   -0.0333    1.0911 C.3     1  UNL1        0.0186
      3 C          -3.2711   -1.3329    1.8762 C.3     1  UNL1       -0.0516
      4 C          -3.7510   -0.0746   -0.2374 C.ar    1  UNL1       -0.0162
      5 C          -5.1568   -0.1908   -0.2549 C.ar    1  UNL1       -0.0560
      6 C          -5.8663   -0.2180   -1.4566 C.ar    1  UNL1       -0.0614
      7 C          -5.1864   -0.1222   -2.6642 C.ar    1  UNL1       -0.0600
      8 C          -3.7977   -0.0049   -2.6671 C.ar    1  UNL1       -0.0402
      9 C          -3.0744    0.0021   -1.4657 C.ar    1  UNL1        0.0354
     10 N          -1.6857    0.1683   -1.4948 N.pl3   1  UNL1       -0.3140
     11 C          -0.8654    0.1431   -0.3621 C.ar    1  UNL1        0.0360
     12 C           0.5257    0.2705   -0.5099 C.ar    1  UNL1       -0.0325
     13 C           1.3873    0.3036    0.5976 C.ar    1  UNL1       -0.0146
     14 C           2.8400    0.4258    0.4250 C.ar    1  UNL1        0.0010
     15 C           3.5831    1.4072    1.0704 C.ar    1  UNL1        0.0377
     16 N           4.9243    1.5700    0.9576 N.ar    1  UNL1       -0.2351
     17 C           5.6097    0.7402    0.1713 C.ar    1  UNL1        0.1597
     18 N           6.9295    0.9103    0.0687 N.ar    1  UNL1       -0.2357
     19 C           7.6379    0.0760   -0.7229 C.ar    1  UNL1        0.0300
     20 C           7.0813   -0.9589   -1.4459 C.ar    1  UNL1       -0.0429
     21 C           5.7115   -1.1452   -1.3474 C.ar    1  UNL1       -0.0496
     22 C           4.9558   -0.2901   -0.5318 C.ar    1  UNL1        0.0198
     23 C           3.5651   -0.4375   -0.3969 C.ar    1  UNL1       -0.0419
     24 C           0.8140    0.2203    1.8713 C.ar    1  UNL1       -0.0536
     25 C          -0.5709    0.1117    2.0300 C.ar    1  UNL1       -0.0554
     26 C          -1.4337    0.0769    0.9182 C.ar    1  UNL1       -0.0162
     27 H          -3.2432    2.1269    1.3665 H       1  UNL1        0.0241
     28 H          -4.5275    1.1593    2.0986 H       1  UNL1        0.0241
     29 H          -2.9605    1.2615    2.8807 H       1  UNL1        0.0241
     30 H          -2.7759   -1.3544    2.8533 H       1  UNL1        0.0241
     31 H          -4.3417   -1.4569    2.0730 H       1  UNL1        0.0241
     32 H          -2.9359   -2.2171    1.3198 H       1  UNL1        0.0241
     33 H          -5.7191   -0.2564    0.6734 H       1  UNL1        0.0621
     34 H          -6.9495   -0.3061   -1.4462 H       1  UNL1        0.0618
     35 H          -5.7346   -0.1315   -3.6021 H       1  UNL1        0.0618
     36 H          -3.2797    0.0849   -3.6180 H       1  UNL1        0.0636
     37 H          -1.2353    0.0100   -2.3854 H       1  UNL1        0.1522
     38 H           0.9419    0.3619   -1.5110 H       1  UNL1        0.0642
     39 H           3.1043    2.1349    1.7224 H       1  UNL1        0.0836
     40 H           8.7058    0.2741   -0.7575 H       1  UNL1        0.0830
     41 H           7.6967   -1.6004   -2.0662 H       1  UNL1        0.0633
     42 H           5.2378   -1.9511   -1.9015 H       1  UNL1        0.0625
     43 H           3.0518   -1.2382   -0.9251 H       1  UNL1        0.0631
     44 H           1.4412    0.2319    2.7612 H       1  UNL1        0.0624
     45 H          -0.9673    0.0567    3.0414 H       1  UNL1        0.0621
@<TRIPOS>BOND
     1     1     2    1
     2     2     3    1
     3     2     4    1
     4     4     5   ar
     5     5     6   ar
     6     6     7   ar
     7     7     8   ar
     8     8     9   ar
     9     9    10    1
    10    10    11    1
    11    11    12   ar
    12    12    13   ar
    13    13    14    1
    14    14    15   ar
    15    15    16   ar
    16    16    17   ar
    17    17    18   ar
    18    18    19   ar
    19    19    20   ar
    20    20    21   ar
    21    21    22   ar
    22    22    23   ar
    23    13    24   ar
    24    24    25   ar
    25    25    26   ar
    26    26     2    1
    27     9     4   ar
    28    26    11   ar
    29    23    14   ar
    30    22    17   ar
    31     1    27    1
    32     1    28    1
    33     1    29    1
    34     3    30    1
    35     3    31    1
    36     3    32    1
    37     5    33    1
    38     6    34    1
    39     7    35    1
    40     8    36    1
    41    10    37    1
    42    12    38    1
    43    15    39    1
    44    19    40    1
    45    20    41    1
    46    21    42    1
    47    23    43    1
    48    24    44    1
    49    25    45    1
