@<TRIPOS>MOLECULE
*****
 44 50 0 0 0
SMALL
GASTEIGER

@<TRIPOS>ATOM
      1 SI          5.7774    1.1338   -2.3016 Si      1  UNL1        0.0000
      2 C           6.7483    0.2764   -0.9518 C.2     1  UNL1        0.0000
      3 C           5.9223   -0.1962   -0.0002 C.ar    1  UNL1        0.0000
      4 C           6.3436   -0.8960    1.1946 C.ar    1  UNL1        0.0000
      5 C           5.4053   -1.2963    2.0715 C.ar    1  UNL1        0.0000
      6 C           3.9815   -1.0529    1.8507 C.ar    1  UNL1        0.0000
      7 C           3.4914   -0.4270    0.7518 C.ar    1  UNL1        0.0000
      8 C           2.0604   -0.2381    0.6399 C.2     1  UNL1        0.0000
      9 C           1.3181    0.7102    1.2462 C.2     1  UNL1        0.0000
     10 C          -0.1179    0.6427    0.9287 C.ar    1  UNL1        0.0000
     11 C          -1.0746    1.5130    1.4339 C.ar    1  UNL1        0.0000
     12 C          -2.4210    1.3299    1.0420 C.ar    1  UNL1        0.0000
     13 S          -3.7504    2.3064    1.5616 S.2     1  UNL1        0.0000
     14 C          -4.8969    1.4111    0.6488 C.ar    1  UNL1        0.0000
     15 C          -6.3085    1.6351    0.5637 C.ar    1  UNL1        0.0000
     16 C          -7.1527    0.8291   -0.2235 C.ar    1  UNL1        0.0000
     17 C          -6.4416   -0.1646   -0.8706 C.ar    1  UNL1        0.0000
     18 C          -6.9815   -1.1086   -1.7097 C.ar    1  UNL1        0.0000
     19 O          -5.9956   -1.9390   -2.1781 O.2     1  UNL1        0.0000
     20 C          -4.8079   -1.5195   -1.6301 C.ar    1  UNL1        0.0000
     21 C          -5.0663   -0.4446   -0.8360 C.ar    1  UNL1        0.0000
     22 C          -4.2296    0.3960   -0.0232 C.ar    1  UNL1        0.0000
     23 C          -2.8215    0.3061    0.1662 C.ar    1  UNL1        0.0000
     24 C          -1.8203   -0.5689   -0.3348 C.ar    1  UNL1        0.0000
     25 C          -0.4910   -0.3878    0.0523 C.ar    1  UNL1        0.0000
     26 SI          1.0285   -1.3870   -0.4527 Si      1  UNL1        0.0000
     27 C           4.4777    0.0533   -0.2306 C.ar    1  UNL1        0.0000
     28 C           4.2090    0.7325   -1.3650 C.2     1  UNL1        0.0000
     29 H           5.8616    0.4178   -3.5975 H       1  UNL1        0.0000
     30 H           6.0512    2.5901   -2.3567 H       1  UNL1        0.0000
     31 H           7.8238    0.2100   -0.9811 H       1  UNL1        0.0000
     32 H           7.3975   -1.0807    1.3676 H       1  UNL1        0.0000
     33 H           5.6866   -1.8199    2.9800 H       1  UNL1        0.0000
     34 H           3.3143   -1.4156    2.6290 H       1  UNL1        0.0000
     35 H           1.7142    1.4691    1.9084 H       1  UNL1        0.0000
     36 H          -0.8022    2.3156    2.1124 H       1  UNL1        0.0000
     37 H          -6.7452    2.4583    1.1279 H       1  UNL1        0.0000
     38 H          -8.2199    0.9892   -0.2951 H       1  UNL1        0.0000
     39 H          -7.9778   -1.3293   -2.0664 H       1  UNL1        0.0000
     40 H          -3.9444   -2.0958   -1.9219 H       1  UNL1        0.0000
     41 H          -2.0742   -1.3749   -1.0134 H       1  UNL1        0.0000
     42 H           0.9646   -2.7812    0.0582 H       1  UNL1        0.0000
     43 H           1.3187   -1.2424   -1.9035 H       1  UNL1        0.0000
     44 H           3.2451    1.0407   -1.7361 H       1  UNL1        0.0000
@<TRIPOS>BOND
     1     1     2    1
     2     2     3    2
     3     3     4   ar
     4     4     5   ar
     5     5     6   ar
     6     6     7   ar
     7     7     8    1
     8     8     9    2
     9     9    10    1
    10    10    11   ar
    11    11    12   ar
    12    12    13   ar
    13    13    14   ar
    14    14    15   ar
    15    15    16   ar
    16    16    17   ar
    17    17    18   ar
    18    18    19   ar
    19    19    20   ar
    20    20    21   ar
    21    21    22   ar
    22    22    23   ar
    23    23    24   ar
    24    24    25   ar
    25    25    26    1
    26     7    27   ar
    27    27    28    2
    28    28     1    1
    29    27     3   ar
    30    26     8    1
    31    25    10   ar
    32    23    12   ar
    33    22    14   ar
    34    21    17   ar
    35     1    29    1
    36     1    30    1
    37     2    31    1
    38     4    32    1
    39     5    33    1
    40     6    34    1
    41     9    35    1
    42    11    36    1
    43    15    37    1
    44    16    38    1
    45    18    39    1
    46    20    40    1
    47    24    41    1
    48    26    42    1
    49    26    43    1
    50    28    44    1
