@<TRIPOS>MOLECULE
*****
 43 47 0 0 0
SMALL
GASTEIGER

@<TRIPOS>ATOM
      1 C          -2.8455    2.4210   -0.2606 C.3     1  UNL1       -0.0516
      2 C          -2.5340    1.0120   -0.8208 C.3     1  UNL1        0.0186
      3 C          -2.6470    1.0287   -2.3656 C.3     1  UNL1       -0.0516
      4 C          -3.5889    0.0281   -0.2703 C.ar    1  UNL1       -0.0162
      5 C          -4.9636    0.2033   -0.5340 C.ar    1  UNL1       -0.0560
      6 C          -5.9165   -0.6834   -0.0300 C.ar    1  UNL1       -0.0614
      7 C          -5.5159   -1.7580    0.7537 C.ar    1  UNL1       -0.0600
      8 C          -4.1623   -1.9464    1.0268 C.ar    1  UNL1       -0.0402
      9 C          -3.1954   -1.0741    0.5058 C.ar    1  UNL1        0.0354
     10 N          -1.8484   -1.2551    0.8424 N.pl3   1  UNL1       -0.3140
     11 C          -0.8020   -0.4726    0.3395 C.ar    1  UNL1        0.0360
     12 C           0.5230   -0.7708    0.7069 C.ar    1  UNL1       -0.0310
     13 C           1.6108    0.0119    0.2816 C.ar    1  UNL1        0.0037
     14 C           3.0032   -0.2953    0.6610 C.ar    1  UNL1        0.0916
     15 C           3.3615   -0.9312    1.8416 C.ar    1  UNL1        0.0561
     16 N           4.6418   -1.2132    2.1774 N.ar    1  UNL1       -0.2310
     17 C           5.5871   -0.8383    1.3095 C.ar    1  UNL1        0.1977
     18 N           6.8652   -1.1035    1.6139 N.ar    1  UNL1       -0.2316
     19 C           7.7985   -0.7110    0.7237 C.ar    1  UNL1        0.0482
     20 C           7.4665   -0.0666   -0.4470 C.ar    1  UNL1        0.0482
     21 N           6.1880    0.2102   -0.7740 N.ar    1  UNL1       -0.2316
     22 C           5.2414   -0.1718    0.0948 C.ar    1  UNL1        0.1983
     23 N           3.9647    0.0917   -0.2123 N.ar    1  UNL1       -0.2232
     24 C           1.3188    1.1149   -0.5337 C.ar    1  UNL1       -0.0521
     25 C           0.0037    1.4361   -0.8847 C.ar    1  UNL1       -0.0554
     26 C          -1.0794    0.6545   -0.4456 C.ar    1  UNL1       -0.0162
     27 H          -2.7730    2.4346    0.8341 H       1  UNL1        0.0241
     28 H          -3.8536    2.7586   -0.5257 H       1  UNL1        0.0241
     29 H          -2.1547    3.1806   -0.6433 H       1  UNL1        0.0241
     30 H          -1.9523    1.7403   -2.8253 H       1  UNL1        0.0241
     31 H          -2.4287    0.0393   -2.7869 H       1  UNL1        0.0241
     32 H          -3.6482    1.3152   -2.7057 H       1  UNL1        0.0241
     33 H          -5.3103    1.0404   -1.1352 H       1  UNL1        0.0621
     34 H          -6.9706   -0.5280   -0.2448 H       1  UNL1        0.0618
     35 H          -6.2543   -2.4446    1.1582 H       1  UNL1        0.0618
     36 H          -3.8642   -2.7811    1.6553 H       1  UNL1        0.0636
     37 H          -1.6013   -2.1779    1.1730 H       1  UNL1        0.1522
     38 H           0.6936   -1.6472    1.3274 H       1  UNL1        0.0643
     39 H           2.6268   -1.2302    2.5819 H       1  UNL1        0.0852
     40 H           8.8281   -0.9318    0.9827 H       1  UNL1        0.0846
     41 H           8.2204    0.2478   -1.1601 H       1  UNL1        0.0846
     42 H           2.1253    1.7498   -0.9010 H       1  UNL1        0.0624
     43 H          -0.1584    2.3130   -1.5072 H       1  UNL1        0.0621
@<TRIPOS>BOND
     1     1     2    1
     2     2     3    1
     3     2     4    1
     4     4     5   ar
     5     5     6   ar
     6     6     7   ar
     7     7     8   ar
     8     8     9   ar
     9     9    10    1
    10    10    11    1
    11    11    12   ar
    12    12    13   ar
    13    13    14    1
    14    14    15   ar
    15    15    16   ar
    16    16    17   ar
    17    17    18   ar
    18    18    19   ar
    19    19    20   ar
    20    20    21   ar
    21    21    22   ar
    22    22    23   ar
    23    13    24   ar
    24    24    25   ar
    25    25    26   ar
    26    26     2    1
    27     9     4   ar
    28    26    11   ar
    29    23    14   ar
    30    22    17   ar
    31     1    27    1
    32     1    28    1
    33     1    29    1
    34     3    30    1
    35     3    31    1
    36     3    32    1
    37     5    33    1
    38     6    34    1
    39     7    35    1
    40     8    36    1
    41    10    37    1
    42    12    38    1
    43    15    39    1
    44    19    40    1
    45    20    41    1
    46    24    42    1
    47    25    43    1
