@<TRIPOS>MOLECULE
*****
 37 40 0 0 0
SMALL
GASTEIGER

@<TRIPOS>ATOM
      1 C          -1.6070   -2.0121   -1.1831 C.3     1  UNL1       -0.0516
      2 C          -1.3426   -1.1310    0.0619 C.3     1  UNL1        0.0186
      3 C          -1.5795   -1.9613    1.3479 C.3     1  UNL1       -0.0516
      4 C          -2.3508    0.0383    0.0494 C.ar    1  UNL1       -0.0162
      5 C          -3.7420   -0.1920    0.0876 C.ar    1  UNL1       -0.0560
      6 C          -4.6522    0.8659    0.0680 C.ar    1  UNL1       -0.0614
      7 C          -4.1910    2.1745    0.0019 C.ar    1  UNL1       -0.0600
      8 C          -2.8201    2.4220   -0.0390 C.ar    1  UNL1       -0.0402
      9 C          -1.8974    1.3666    0.0028 C.ar    1  UNL1        0.0354
     10 N          -0.5284    1.6410   -0.0934 N.pl3   1  UNL1       -0.3140
     11 C           0.4759    0.6697   -0.0121 C.ar    1  UNL1        0.0360
     12 C           1.8238    1.0612   -0.0705 C.ar    1  UNL1       -0.0324
     13 C           2.8582    0.1173   -0.0434 C.ar    1  UNL1       -0.0116
     14 C           4.2505    0.5217   -0.0886 C.ar    1  UNL1        0.0408
     15 C           5.4144   -0.0805    0.4411 C.ar    1  UNL1        0.0777
     16 N           6.5207    0.6136    0.1619 N.ar    1  UNL1       -0.0862
     17 O           6.0880    1.7019   -0.5780 O.2     1  UNL1       -0.3623
     18 C           4.7404    1.6384   -0.7246 C.ar    1  UNL1        0.1319
     19 C           2.5231   -1.2363    0.0318 C.ar    1  UNL1       -0.0535
     20 C           1.1834   -1.6347    0.0648 C.ar    1  UNL1       -0.0554
     21 C           0.1383   -0.6912    0.0364 C.ar    1  UNL1       -0.0162
     22 H          -1.4456   -1.4450   -2.1085 H       1  UNL1        0.0241
     23 H          -2.6334   -2.3948   -1.2092 H       1  UNL1        0.0241
     24 H          -0.9497   -2.8880   -1.2177 H       1  UNL1        0.0241
     25 H          -0.9233   -2.8367    1.4042 H       1  UNL1        0.0241
     26 H          -1.3972   -1.3571    2.2455 H       1  UNL1        0.0241
     27 H          -2.6044   -2.3428    1.4133 H       1  UNL1        0.0241
     28 H          -4.1354   -1.2050    0.1283 H       1  UNL1        0.0621
     29 H          -5.7199    0.6650    0.0967 H       1  UNL1        0.0618
     30 H          -4.8952    3.0014   -0.0251 H       1  UNL1        0.0618
     31 H          -2.4733    3.4495   -0.1074 H       1  UNL1        0.0636
     32 H          -0.2537    2.5916    0.1140 H       1  UNL1        0.1522
     33 H           2.0559    2.1215   -0.1264 H       1  UNL1        0.0642
     34 H           5.5066   -0.9875    1.0214 H       1  UNL1        0.0870
     35 H           4.3033    2.4397   -1.3015 H       1  UNL1        0.1064
     36 H           3.2926   -2.0047    0.0439 H       1  UNL1        0.0624
     37 H           0.9669   -2.6999    0.1055 H       1  UNL1        0.0621
@<TRIPOS>BOND
     1     1     2    1
     2     2     3    1
     3     2     4    1
     4     4     5   ar
     5     5     6   ar
     6     6     7   ar
     7     7     8   ar
     8     8     9   ar
     9     9    10    1
    10    10    11    1
    11    11    12   ar
    12    12    13   ar
    13    13    14    1
    14    14    15   ar
    15    15    16   ar
    16    16    17   ar
    17    17    18   ar
    18    13    19   ar
    19    19    20   ar
    20    20    21   ar
    21    21     2    1
    22     9     4   ar
    23    21    11   ar
    24    18    14   ar
    25     1    22    1
    26     1    23    1
    27     1    24    1
    28     3    25    1
    29     3    26    1
    30     3    27    1
    31     5    28    1
    32     6    29    1
    33     7    30    1
    34     8    31    1
    35    10    32    1
    36    12    33    1
    37    15    34    1
    38    18    35    1
    39    19    36    1
    40    20    37    1
