@<TRIPOS>MOLECULE
*****
 37 40 0 0 0
SMALL
GASTEIGER

@<TRIPOS>ATOM
      1 C          -1.7136   -1.8123    1.5567 C.3     1  UNL1       -0.0516
      2 C          -1.4503   -1.0764    0.2206 C.3     1  UNL1        0.0186
      3 C          -1.7820   -2.0155   -0.9658 C.3     1  UNL1       -0.0516
      4 C          -2.3927    0.1449    0.1474 C.ar    1  UNL1       -0.0162
      5 C          -3.7949   -0.0066    0.1799 C.ar    1  UNL1       -0.0560
      6 C          -4.6443    1.0995    0.1217 C.ar    1  UNL1       -0.0614
      7 C          -4.1099    2.3790    0.0376 C.ar    1  UNL1       -0.0600
      8 C          -2.7270    2.5488    0.0066 C.ar    1  UNL1       -0.0402
      9 C          -1.8659    1.4426    0.0425 C.ar    1  UNL1        0.0354
     10 N          -0.4820    1.6439    0.0631 N.pl3   1  UNL1       -0.3140
     11 C           0.4638    0.6128    0.0471 C.ar    1  UNL1        0.0360
     12 C           1.8313    0.9280    0.0144 C.ar    1  UNL1       -0.0310
     13 C           2.8166   -0.0678    0.0526 C.ar    1  UNL1        0.0026
     14 C           4.2263    0.3167    0.0046 C.ar    1  UNL1        0.0782
     15 C           5.2792   -0.4975    0.3820 C.ar    1  UNL1        0.0031
     16 S           6.7725    0.3256    0.1803 S.2     1  UNL1       -0.0833
     17 C           5.9140    1.6977   -0.3784 C.ar    1  UNL1        0.0654
     18 N           4.6058    1.5842   -0.4232 N.ar    1  UNL1       -0.2474
     19 C           2.4045   -1.4007    0.1312 C.ar    1  UNL1       -0.0522
     20 C           1.0438   -1.7229    0.1857 C.ar    1  UNL1       -0.0554
     21 C           0.0521   -0.7236    0.1522 C.ar    1  UNL1       -0.0162
     22 H          -1.1037   -2.7169    1.6582 H       1  UNL1        0.0241
     23 H          -1.4860   -1.1662    2.4138 H       1  UNL1        0.0241
     24 H          -2.7574   -2.1307    1.6554 H       1  UNL1        0.0241
     25 H          -1.1771   -2.9289   -0.9544 H       1  UNL1        0.0241
     26 H          -1.6021   -1.5155   -1.9257 H       1  UNL1        0.0241
     27 H          -2.8280   -2.3413   -0.9579 H       1  UNL1        0.0241
     28 H          -4.2440   -0.9938    0.2562 H       1  UNL1        0.0621
     29 H          -5.7217    0.9595    0.1496 H       1  UNL1        0.0618
     30 H          -4.7658    3.2444    0.0032 H       1  UNL1        0.0618
     31 H          -2.3209    3.5555   -0.0429 H       1  UNL1        0.0636
     32 H          -0.1560    2.5513   -0.2417 H       1  UNL1        0.1522
     33 H           2.1345    1.9720   -0.0375 H       1  UNL1        0.0643
     34 H           5.2634   -1.5067    0.7652 H       1  UNL1        0.0715
     35 H           6.4252    2.6043   -0.6745 H       1  UNL1        0.0907
     36 H           3.1237   -2.2147    0.1452 H       1  UNL1        0.0624
     37 H           0.7688   -2.7728    0.2559 H       1  UNL1        0.0621
@<TRIPOS>BOND
     1     1     2    1
     2     2     3    1
     3     2     4    1
     4     4     5   ar
     5     5     6   ar
     6     6     7   ar
     7     7     8   ar
     8     8     9   ar
     9     9    10    1
    10    10    11    1
    11    11    12   ar
    12    12    13   ar
    13    13    14    1
    14    14    15   ar
    15    15    16   ar
    16    16    17   ar
    17    17    18   ar
    18    13    19   ar
    19    19    20   ar
    20    20    21   ar
    21    21     2    1
    22     9     4   ar
    23    21    11   ar
    24    18    14   ar
    25     1    22    1
    26     1    23    1
    27     1    24    1
    28     3    25    1
    29     3    26    1
    30     3    27    1
    31     5    28    1
    32     6    29    1
    33     7    30    1
    34     8    31    1
    35    10    32    1
    36    12    33    1
    37    15    34    1
    38    17    35    1
    39    19    36    1
    40    20    37    1
