@<TRIPOS>MOLECULE
*****
 43 47 0 0 0
SMALL
GASTEIGER

@<TRIPOS>ATOM
      1 C          -3.1586   -1.8861    1.3857 C.3     1  UNL1       -0.0516
      2 C          -2.8065   -1.0212    0.1499 C.3     1  UNL1        0.0186
      3 C          -3.2472   -1.7532   -1.1409 C.3     1  UNL1       -0.0516
      4 C          -3.5942    0.3035    0.2470 C.ar    1  UNL1       -0.0162
      5 C          -5.0033    0.3159    0.3154 C.ar    1  UNL1       -0.0560
      6 C          -5.7140    1.5146    0.3942 C.ar    1  UNL1       -0.0614
      7 C          -5.0320    2.7247    0.3984 C.ar    1  UNL1       -0.0600
      8 C          -3.6401    2.7327    0.3292 C.ar    1  UNL1       -0.0402
      9 C          -2.9161    1.5330    0.2719 C.ar    1  UNL1        0.0354
     10 N          -1.5227    1.5713    0.1516 N.pl3   1  UNL1       -0.3140
     11 C          -0.7025    0.4376    0.1370 C.ar    1  UNL1        0.0361
     12 C           0.6915    0.5930    0.0649 C.ar    1  UNL1       -0.0280
     13 C           1.5475   -0.5141   -0.0029 C.ar    1  UNL1        0.0387
     14 C           2.9998   -0.3699   -0.0669 C.ar    1  UNL1        0.2284
     15 N           3.9245   -1.3127   -0.1377 N.ar    1  UNL1       -0.2090
     16 C           5.1034   -0.6129   -0.1720 C.ar    1  UNL1        0.1099
     17 C           6.4327   -1.0480   -0.2472 C.ar    1  UNL1       -0.0326
     18 C           7.4462   -0.0771   -0.2657 C.ar    1  UNL1       -0.0595
     19 C           7.1414    1.2894   -0.2106 C.ar    1  UNL1       -0.0582
     20 C           5.8173    1.7390   -0.1351 C.ar    1  UNL1       -0.0171
     21 C           4.8452    0.7463   -0.1192 C.ar    1  UNL1        0.1557
     22 O           3.4938    0.9124   -0.0508 O.2     1  UNL1       -0.4353
     23 C           0.9780   -1.7906   -0.0144 C.ar    1  UNL1       -0.0491
     24 C          -0.4091   -1.9548    0.0347 C.ar    1  UNL1       -0.0553
     25 C          -1.2723   -0.8445    0.1052 C.ar    1  UNL1       -0.0162
     26 H          -2.6645   -2.8636    1.3631 H       1  UNL1        0.0241
     27 H          -2.8551   -1.3872    2.3146 H       1  UNL1        0.0241
     28 H          -4.2329   -2.0881    1.4591 H       1  UNL1        0.0241
     29 H          -3.0077   -1.1593   -2.0319 H       1  UNL1        0.0241
     30 H          -4.3252   -1.9488   -1.1586 H       1  UNL1        0.0241
     31 H          -2.7550   -2.7255   -1.2542 H       1  UNL1        0.0241
     32 H          -5.5669   -0.6138    0.3029 H       1  UNL1        0.0621
     33 H          -6.7996    1.5003    0.4444 H       1  UNL1        0.0618
     34 H          -5.5806    3.6611    0.4482 H       1  UNL1        0.0618
     35 H          -3.1196    3.6864    0.3169 H       1  UNL1        0.0636
     36 H          -1.0787    2.4448    0.4002 H       1  UNL1        0.1522
     37 H           1.1102    1.5967    0.0591 H       1  UNL1        0.0644
     38 H           6.6643   -2.1062   -0.2898 H       1  UNL1        0.0640
     39 H           8.4859   -0.3936   -0.3240 H       1  UNL1        0.0618
     40 H           7.9506    2.0176   -0.2269 H       1  UNL1        0.0619
     41 H           5.5620    2.7900   -0.0919 H       1  UNL1        0.0655
     42 H           1.6156   -2.6720   -0.0692 H       1  UNL1        0.0625
     43 H          -0.8054   -2.9673    0.0121 H       1  UNL1        0.0621
@<TRIPOS>BOND
     1     1     2    1
     2     2     3    1
     3     2     4    1
     4     4     5   ar
     5     5     6   ar
     6     6     7   ar
     7     7     8   ar
     8     8     9   ar
     9     9    10    1
    10    10    11    1
    11    11    12   ar
    12    12    13   ar
    13    13    14    1
    14    14    15   ar
    15    15    16   ar
    16    16    17   ar
    17    17    18   ar
    18    18    19   ar
    19    19    20   ar
    20    20    21   ar
    21    21    22   ar
    22    13    23   ar
    23    23    24   ar
    24    24    25   ar
    25    25     2    1
    26     9     4   ar
    27    25    11   ar
    28    22    14   ar
    29    21    16   ar
    30     1    26    1
    31     1    27    1
    32     1    28    1
    33     3    29    1
    34     3    30    1
    35     3    31    1
    36     5    32    1
    37     6    33    1
    38     7    34    1
    39     8    35    1
    40    10    36    1
    41    12    37    1
    42    17    38    1
    43    18    39    1
    44    19    40    1
    45    20    41    1
    46    23    42    1
    47    24    43    1
