@<TRIPOS>MOLECULE
*****
 40 43 0 0 0
SMALL
GASTEIGER

@<TRIPOS>ATOM
      1 C          -2.1747    2.1168    1.0683 C.3     1  UNL1       -0.0516
      2 C          -1.8966    1.0589   -0.0285 C.3     1  UNL1        0.0186
      3 C          -2.2263    1.6519   -1.4197 C.3     1  UNL1       -0.0516
      4 C          -2.8293   -0.1472    0.2171 C.ar    1  UNL1       -0.0162
      5 C          -4.2320    0.0018    0.2363 C.ar    1  UNL1       -0.0560
      6 C          -5.0734   -1.0908    0.4512 C.ar    1  UNL1       -0.0614
      7 C          -4.5309   -2.3551    0.6434 C.ar    1  UNL1       -0.0600
      8 C          -3.1474   -2.5225    0.6254 C.ar    1  UNL1       -0.0402
      9 C          -2.2931   -1.4272    0.4328 C.ar    1  UNL1        0.0354
     10 N          -0.9106   -1.6325    0.3637 N.pl3   1  UNL1       -0.3140
     11 C           0.0298   -0.6057    0.2256 C.ar    1  UNL1        0.0360
     12 C           1.3987   -0.9175    0.2156 C.ar    1  UNL1       -0.0310
     13 C           2.3844    0.0640    0.0186 C.ar    1  UNL1        0.0035
     14 C           3.8121   -0.3064    0.0234 C.ar    1  UNL1        0.0916
     15 N           4.1901   -1.0277    1.1117 N.ar    1  UNL1       -0.2341
     16 C           5.4774   -1.3944    1.1867 C.ar    1  UNL1        0.1166
     17 N           6.4199   -1.1217    0.2761 N.ar    1  UNL1       -0.2424
     18 C           6.0068   -0.4189   -0.7981 C.ar    1  UNL1        0.0487
     19 C           4.7102    0.0178   -0.9824 C.ar    1  UNL1        0.0957
     20 C           4.3645    0.7308   -2.1660 C.1     1  UNL1        0.1028
     21 N           4.1163    1.3234   -3.1322 N.1     1  UNL1       -0.1908
     22 C           1.9554    1.3847   -0.1607 C.ar    1  UNL1       -0.0521
     23 C           0.5931    1.7019   -0.1785 C.ar    1  UNL1       -0.0554
     24 C          -0.3915    0.7125    0.0036 C.ar    1  UNL1       -0.0162
     25 H          -3.2212    2.4407    1.0773 H       1  UNL1        0.0241
     26 H          -1.5752    3.0237    0.9326 H       1  UNL1        0.0241
     27 H          -1.9463    1.7195    2.0653 H       1  UNL1        0.0241
     28 H          -3.2746    1.9602   -1.5006 H       1  UNL1        0.0241
     29 H          -2.0382    0.9195   -2.2148 H       1  UNL1        0.0241
     30 H          -1.6247    2.5397   -1.6443 H       1  UNL1        0.0241
     31 H          -4.6880    0.9761    0.0779 H       1  UNL1        0.0621
     32 H          -6.1515   -0.9530    0.4602 H       1  UNL1        0.0618
     33 H          -5.1814   -3.2111    0.7995 H       1  UNL1        0.0618
     34 H          -2.7363   -3.5193    0.7597 H       1  UNL1        0.0636
     35 H          -0.5711   -2.4973    0.7628 H       1  UNL1        0.1522
     36 H           1.7071   -1.9512    0.3629 H       1  UNL1        0.0643
     37 H           5.7802   -1.9615    2.0604 H       1  UNL1        0.1047
     38 H           6.7842   -0.2170   -1.5324 H       1  UNL1        0.0844
     39 H           2.6725    2.1937   -0.2865 H       1  UNL1        0.0624
     40 H           0.3115    2.7402   -0.3400 H       1  UNL1        0.0621
@<TRIPOS>BOND
     1     1     2    1
     2     2     3    1
     3     2     4    1
     4     4     5   ar
     5     5     6   ar
     6     6     7   ar
     7     7     8   ar
     8     8     9   ar
     9     9    10    1
    10    10    11    1
    11    11    12   ar
    12    12    13   ar
    13    13    14    1
    14    14    15   ar
    15    15    16   ar
    16    16    17   ar
    17    17    18   ar
    18    18    19   ar
    19    19    20    1
    20    20    21    3
    21    13    22   ar
    22    22    23   ar
    23    23    24   ar
    24    24     2    1
    25     9     4   ar
    26    24    11   ar
    27    19    14   ar
    28     1    25    1
    29     1    26    1
    30     1    27    1
    31     3    28    1
    32     3    29    1
    33     3    30    1
    34     5    31    1
    35     6    32    1
    36     7    33    1
    37     8    34    1
    38    10    35    1
    39    12    36    1
    40    16    37    1
    41    18    38    1
    42    22    39    1
    43    23    40    1
