@<TRIPOS>MOLECULE
*****
 36 39 0 0 0
SMALL
GASTEIGER

@<TRIPOS>ATOM
      1 C          -1.1125   -0.2867    2.5235 C.3     1  UNL1       -0.0516
      2 C          -1.0588    0.4426    1.1591 C.3     1  UNL1        0.0186
      3 C          -1.2042    1.9691    1.3779 C.3     1  UNL1       -0.0516
      4 C          -2.2529   -0.0392    0.3066 C.ar    1  UNL1       -0.0162
      5 C          -3.5836    0.1457    0.7368 C.ar    1  UNL1       -0.0560
      6 C          -4.6613   -0.2985   -0.0310 C.ar    1  UNL1       -0.0614
      7 C          -4.4309   -0.9429   -1.2399 C.ar    1  UNL1       -0.0600
      8 C          -3.1230   -1.1367   -1.6805 C.ar    1  UNL1       -0.0402
      9 C          -2.0345   -0.6748   -0.9265 C.ar    1  UNL1        0.0354
     10 N          -0.7311   -0.9270   -1.3675 N.pl3   1  UNL1       -0.3140
     11 C           0.4217   -0.4693   -0.7202 C.ar    1  UNL1        0.0361
     12 C           1.6814   -0.7359   -1.2799 C.ar    1  UNL1       -0.0294
     13 C           2.8620   -0.3390   -0.6384 C.ar    1  UNL1        0.0242
     14 C           4.1690   -0.6074   -1.2286 C.ar    1  UNL1        0.2019
     15 N           5.3475   -0.2373   -0.6108 N.ar    1  UNL1       -0.1942
     16 C           6.2502   -0.6569   -1.4594 C.ar    1  UNL1        0.2147
     17 O           5.7349   -1.2582   -2.5586 O.2     1  UNL1       -0.3411
     18 N           4.3496   -1.2268   -2.4092 N.ar    1  UNL1       -0.0564
     19 C           2.7637    0.3196    0.5902 C.ar    1  UNL1       -0.0505
     20 C           1.5141    0.5699    1.1643 C.ar    1  UNL1       -0.0553
     21 C           0.3237    0.1754    0.5228 C.ar    1  UNL1       -0.0162
     22 H          -2.0552   -0.1071    3.0522 H       1  UNL1        0.0241
     23 H          -0.3130    0.0384    3.1986 H       1  UNL1        0.0241
     24 H          -1.0110   -1.3716    2.3945 H       1  UNL1        0.0241
     25 H          -0.4091    2.3754    2.0127 H       1  UNL1        0.0241
     26 H          -1.1688    2.5086    0.4231 H       1  UNL1        0.0241
     27 H          -2.1493    2.2306    1.8664 H       1  UNL1        0.0241
     28 H          -3.7970    0.6365    1.6833 H       1  UNL1        0.0621
     29 H          -5.6784   -0.1468    0.3207 H       1  UNL1        0.0618
     30 H          -5.2655   -1.3006   -1.8364 H       1  UNL1        0.0618
     31 H          -2.9559   -1.6562   -2.6201 H       1  UNL1        0.0636
     32 H          -0.6303   -1.1800   -2.3412 H       1  UNL1        0.1522
     33 H           1.7369   -1.2639   -2.2295 H       1  UNL1        0.0643
     34 H           7.3254   -0.5875   -1.3987 H       1  UNL1        0.1283
     35 H           3.6609    0.6395    1.1172 H       1  UNL1        0.0625
     36 H           1.4853    1.0757    2.1267 H       1  UNL1        0.0621
@<TRIPOS>BOND
     1     1     2    1
     2     2     3    1
     3     2     4    1
     4     4     5   ar
     5     5     6   ar
     6     6     7   ar
     7     7     8   ar
     8     8     9   ar
     9     9    10    1
    10    10    11    1
    11    11    12   ar
    12    12    13   ar
    13    13    14    1
    14    14    15   ar
    15    15    16   ar
    16    16    17   ar
    17    17    18   ar
    18    13    19   ar
    19    19    20   ar
    20    20    21   ar
    21    21     2    1
    22     9     4   ar
    23    21    11   ar
    24    18    14   ar
    25     1    22    1
    26     1    23    1
    27     1    24    1
    28     3    25    1
    29     3    26    1
    30     3    27    1
    31     5    28    1
    32     6    29    1
    33     7    30    1
    34     8    31    1
    35    10    32    1
    36    12    33    1
    37    16    34    1
    38    19    35    1
    39    20    36    1
