@<TRIPOS>MOLECULE
*****
 34 38 0 0 0
SMALL
GASTEIGER

@<TRIPOS>ATOM
      1 C          -1.9823    2.2422   -1.5529 C.3     1  UNL1       -0.0517
      2 C          -2.1730    0.8573   -0.9319 C.3     1  UNL1        0.0173
      3 C          -2.6167   -0.1665   -1.9786 C.3     1  UNL1       -0.0517
      4 C          -3.1379    0.9001    0.2636 C.ar    1  UNL1       -0.0221
      5 C          -4.4977    1.2210    0.4779 C.ar    1  UNL1       -0.0501
      6 C          -4.8265    1.0698    1.8173 C.ar    1  UNL1       -0.0234
      7 S          -3.4868    0.5441    2.7832 S.2     1  UNL1       -0.0958
      8 C          -2.5094    0.5258    1.4373 C.ar    1  UNL1        0.0302
      9 C          -1.1554    0.2168    1.1628 C.ar    1  UNL1        0.0308
     10 S           0.1584   -0.2963    2.0400 S.2     1  UNL1       -0.0873
     11 C           1.1493   -0.2955    0.6106 C.ar    1  UNL1        0.0252
     12 C           2.5474   -0.7048    0.7087 C.ar    1  UNL1        0.0549
     13 C           3.0683   -1.7018   -0.1666 C.ar    1  UNL1        0.1110
     14 N           2.4134   -2.3659   -1.1364 N.ar    1  UNL1       -0.1901
     15 S           3.4931   -3.4153   -1.8290 S.2     1  UNL1        0.1165
     16 N           4.8579   -3.0782   -0.9489 N.ar    1  UNL1       -0.1907
     17 C           4.5194   -2.1310   -0.0627 C.ar    1  UNL1        0.1034
     18 C           5.3895   -1.5585    0.8895 C.ar    1  UNL1        0.0047
     19 C           4.8197   -0.5794    1.7095 C.ar    1  UNL1        0.1612
     20 F           5.6112    0.0045    2.6229 F       1  UNL1       -0.2024
     21 C           3.4713   -0.1681    1.6277 C.ar    1  UNL1        0.1687
     22 F           3.0735    0.8052    2.4647 F       1  UNL1       -0.2018
     23 C           0.4275    0.0929   -0.5162 C.ar    1  UNL1       -0.0422
     24 C          -0.9131    0.3934   -0.1851 C.ar    1  UNL1       -0.0215
     25 H          -1.6638    2.9807   -0.8070 H       1  UNL1        0.0241
     26 H          -1.2188    2.2212   -2.3390 H       1  UNL1        0.0241
     27 H          -2.9148    2.6078   -1.9977 H       1  UNL1        0.0241
     28 H          -2.7548   -1.1619   -1.5391 H       1  UNL1        0.0241
     29 H          -1.8729   -0.2622   -2.7779 H       1  UNL1        0.0241
     30 H          -3.5691    0.1239   -2.4366 H       1  UNL1        0.0241
     31 H          -5.2007    1.5413   -0.2805 H       1  UNL1        0.0626
     32 H          -5.7849    1.2390    2.2887 H       1  UNL1        0.0693
     33 H           6.4279   -1.8493    0.9796 H       1  UNL1        0.0669
     34 H           0.8505    0.1478   -1.5121 H       1  UNL1        0.0632
@<TRIPOS>BOND
     1     1     2    1
     2     2     3    1
     3     2     4    1
     4     4     5   ar
     5     5     6   ar
     6     6     7   ar
     7     7     8   ar
     8     8     9    1
     9     9    10   ar
    10    10    11   ar
    11    11    12    1
    12    12    13   ar
    13    13    14   ar
    14    14    15   ar
    15    15    16   ar
    16    16    17   ar
    17    17    18   ar
    18    18    19   ar
    19    19    20    1
    20    19    21   ar
    21    21    22    1
    22    11    23   ar
    23    23    24   ar
    24    24     2    1
    25     8     4   ar
    26    24     9   ar
    27    21    12   ar
    28    17    13   ar
    29     1    25    1
    30     1    26    1
    31     1    27    1
    32     3    28    1
    33     3    29    1
    34     3    30    1
    35     5    31    1
    36     6    32    1
    37    18    33    1
    38    23    34    1
