@<TRIPOS>MOLECULE
*****
 45 51 0 0 0
SMALL
GASTEIGER

@<TRIPOS>ATOM
      1 C          -6.4044   -0.1739   -1.8077 C.3     1  UNL1       -0.0517
      2 C          -6.0209   -0.3336   -0.3354 C.3     1  UNL1        0.0173
      3 C          -6.4597   -1.6936    0.2104 C.3     1  UNL1       -0.0517
      4 C          -6.5628    0.8220    0.5199 C.ar    1  UNL1       -0.0221
      5 C          -7.8319    1.3355    0.8718 C.ar    1  UNL1       -0.0501
      6 C          -7.6958    2.4367    1.7047 C.ar    1  UNL1       -0.0234
      7 S          -6.0403    2.8240    2.0418 S.2     1  UNL1       -0.0958
      8 C          -5.5384    1.5505    1.0966 C.ar    1  UNL1        0.0302
      9 C          -4.2957    0.9929    0.7107 C.ar    1  UNL1        0.0308
     10 S          -2.6952    1.3195    1.0005 S.2     1  UNL1       -0.0869
     11 C          -2.1976   -0.0229    0.0031 C.ar    1  UNL1        0.0268
     12 C          -0.8021   -0.3635   -0.2152 C.ar    1  UNL1        0.0266
     13 C          -0.3178   -1.4063   -0.9853 C.ar    1  UNL1       -0.0458
     14 C           1.1064   -1.4736   -0.9976 C.ar    1  UNL1       -0.0443
     15 C           1.6976   -0.4824   -0.2373 C.ar    1  UNL1        0.0450
     16 C           3.1226   -0.2966   -0.0596 C.ar    1  UNL1        0.1181
     17 N           3.9854   -1.1101   -0.6472 N.ar    1  UNL1       -0.2297
     18 C           5.2462   -0.7182   -0.3192 C.ar    1  UNL1        0.1364
     19 S           6.8120   -1.3257   -0.7334 S.2     1  UNL1       -0.0465
     20 C           7.5021   -0.0579    0.2370 C.ar    1  UNL1        0.1180
     21 C           8.9277    0.1271    0.4141 C.ar    1  UNL1        0.0444
     22 C           9.5216    1.1209    1.1758 C.ar    1  UNL1       -0.0449
     23 C          10.9452    1.0572    1.1661 C.ar    1  UNL1       -0.0541
     24 C          11.4040    0.0143    0.3959 C.ar    1  UNL1       -0.0237
     25 S          10.1242   -0.8741   -0.3050 S.2     1  UNL1       -0.0946
     26 N           6.6391    0.7553    0.8245 N.ar    1  UNL1       -0.2297
     27 C           5.3783    0.3639    0.4968 C.ar    1  UNL1        0.1364
     28 S           3.8124    0.9711    0.9108 S.2     1  UNL1       -0.0465
     29 S           0.5031    0.5126    0.4779 S.2     1  UNL1       -0.0857
     30 C          -3.3065   -0.6867   -0.5271 C.ar    1  UNL1       -0.0418
     31 C          -4.5200   -0.0913   -0.1119 C.ar    1  UNL1       -0.0215
     32 H          -6.0920    0.7995   -2.2049 H       1  UNL1        0.0241
     33 H          -7.4893   -0.2500   -1.9440 H       1  UNL1        0.0241
     34 H          -5.9316   -0.9461   -2.4253 H       1  UNL1        0.0241
     35 H          -5.9887   -2.5129   -0.3447 H       1  UNL1        0.0241
     36 H          -6.1870   -1.8141    1.2659 H       1  UNL1        0.0241
     37 H          -7.5463   -1.8170    0.1371 H       1  UNL1        0.0241
     38 H          -8.7872    0.9415    0.5489 H       1  UNL1        0.0626
     39 H          -8.4799    3.0417    2.1388 H       1  UNL1        0.0693
     40 H          -0.9473   -2.1026   -1.5251 H       1  UNL1        0.0629
     41 H           1.6768   -2.2186   -1.5418 H       1  UNL1        0.0630
     42 H           8.9494    1.8652    1.7190 H       1  UNL1        0.0630
     43 H          11.5958    1.7415    1.6970 H       1  UNL1        0.0623
     44 H          12.4306   -0.2706    0.2097 H       1  UNL1        0.0693
     45 H          -3.2418   -1.5506   -1.1759 H       1  UNL1        0.0632
@<TRIPOS>BOND
     1     1     2    1
     2     2     3    1
     3     2     4    1
     4     4     5   ar
     5     5     6   ar
     6     6     7   ar
     7     7     8   ar
     8     8     9    1
     9     9    10   ar
    10    10    11   ar
    11    11    12    1
    12    12    13   ar
    13    13    14   ar
    14    14    15   ar
    15    15    16    1
    16    16    17   ar
    17    17    18   ar
    18    18    19   ar
    19    19    20   ar
    20    20    21    1
    21    21    22   ar
    22    22    23   ar
    23    23    24   ar
    24    24    25   ar
    25    20    26   ar
    26    26    27   ar
    27    27    28   ar
    28    15    29   ar
    29    11    30   ar
    30    30    31   ar
    31    31     2    1
    32     8     4   ar
    33    31     9   ar
    34    29    12   ar
    35    28    16   ar
    36    27    18   ar
    37    25    21   ar
    38     1    32    1
    39     1    33    1
    40     1    34    1
    41     3    35    1
    42     3    36    1
    43     3    37    1
    44     5    38    1
    45     6    39    1
    46    13    40    1
    47    14    41    1
    48    22    42    1
    49    23    43    1
    50    24    44    1
    51    30    45    1
