@<TRIPOS>MOLECULE
*****
 34 38 0 0 0
SMALL
GASTEIGER

@<TRIPOS>ATOM
      1 C          -2.9435    0.4761    1.5515 C.3     1  UNL1       -0.0517
      2 C          -2.4652    0.4620    0.0985 C.3     1  UNL1        0.0173
      3 C          -2.6484    1.8298   -0.5618 C.3     1  UNL1       -0.0517
      4 C          -3.1450   -0.6539   -0.7111 C.ar    1  UNL1       -0.0221
      5 C          -4.4617   -0.9840   -1.1052 C.ar    1  UNL1       -0.0501
      6 C          -4.4654   -2.1514   -1.8549 C.ar    1  UNL1       -0.0234
      7 S          -2.8803   -2.8205   -2.0650 S.2     1  UNL1       -0.0958
      8 C          -2.2253   -1.5762   -1.1762 C.ar    1  UNL1        0.0302
      9 C          -0.9291   -1.1956   -0.7530 C.ar    1  UNL1        0.0308
     10 S           0.6116   -1.7892   -0.9293 S.2     1  UNL1       -0.0874
     11 C           1.2611   -0.4737    0.0110 C.ar    1  UNL1        0.0223
     12 C           2.7045   -0.3981    0.2449 C.ar    1  UNL1        0.0169
     13 C           3.5034   -1.5193    0.5753 C.ar    1  UNL1       -0.0513
     14 C           4.8978   -1.4493    0.8071 C.ar    1  UNL1       -0.0590
     15 C           5.6259   -0.2521    0.7330 C.ar    1  UNL1       -0.0335
     16 C           4.8867    0.9105    0.4106 C.ar    1  UNL1        0.1005
     17 N           5.3978    2.1457    0.2944 N.ar    1  UNL1       -0.1908
     18 S           4.1331    3.1418   -0.1027 S.2     1  UNL1        0.1165
     19 N           2.8794    2.0586   -0.1322 N.ar    1  UNL1       -0.1902
     20 C           3.3937    0.8490    0.1609 C.ar    1  UNL1        0.1080
     21 C           0.2549    0.3946    0.4324 C.ar    1  UNL1       -0.0422
     22 C          -1.0155   -0.0321   -0.0156 C.ar    1  UNL1       -0.0215
     23 H          -2.8145   -0.5022    2.0304 H       1  UNL1        0.0241
     24 H          -4.0069    0.7338    1.6151 H       1  UNL1        0.0241
     25 H          -2.3828    1.2073    2.1451 H       1  UNL1        0.0241
     26 H          -2.0784    2.6029   -0.0340 H       1  UNL1        0.0241
     27 H          -3.7025    2.1297   -0.5638 H       1  UNL1        0.0241
     28 H          -2.3071    1.8258   -1.6042 H       1  UNL1        0.0241
     29 H          -5.3547   -0.4200   -0.8674 H       1  UNL1        0.0626
     30 H          -5.3151   -2.6543   -2.2958 H       1  UNL1        0.0693
     31 H           3.0296   -2.4979    0.6690 H       1  UNL1        0.0624
     32 H           5.4295   -2.3685    1.0560 H       1  UNL1        0.0618
     33 H           6.6937   -0.2125    0.9123 H       1  UNL1        0.0640
     34 H           0.4388    1.2830    1.0247 H       1  UNL1        0.0632
@<TRIPOS>BOND
     1     1     2    1
     2     2     3    1
     3     2     4    1
     4     4     5   ar
     5     5     6   ar
     6     6     7   ar
     7     7     8   ar
     8     8     9    1
     9     9    10   ar
    10    10    11   ar
    11    11    12    1
    12    12    13   ar
    13    13    14   ar
    14    14    15   ar
    15    15    16   ar
    16    16    17   ar
    17    17    18   ar
    18    18    19   ar
    19    19    20   ar
    20    11    21   ar
    21    21    22   ar
    22    22     2    1
    23     8     4   ar
    24    22     9   ar
    25    20    12   ar
    26    20    16   ar
    27     1    23    1
    28     1    24    1
    29     1    25    1
    30     3    26    1
    31     3    27    1
    32     3    28    1
    33     5    29    1
    34     6    30    1
    35    13    31    1
    36    14    32    1
    37    15    33    1
    38    21    34    1
