@<TRIPOS>MOLECULE
*****
 42 43 0 0 0
SMALL
GASTEIGER

@<TRIPOS>ATOM
      1 C          -6.2006   -0.4486   -0.2652 C.3     1  UNL1       -0.0590
      2 C          -4.7302   -0.1421    0.0819 C.3     1  UNL1       -0.0209
      3 C          -4.6612    1.3043    0.6107 C.3     1  UNL1       -0.0590
      4 C          -3.8828   -0.3042   -1.1895 C.3     1  UNL1        0.0162
      5 C          -2.3895   -0.2160   -0.9569 C.2     1  UNL1        0.1682
      6 O          -1.6377    0.0667   -1.8923 O.2     1  UNL1       -0.2919
      7 C          -1.8712   -0.5470    0.4022 C.2     1  UNL1        0.0732
      8 C          -0.5716   -0.3811    0.7077 C.2     1  UNL1        0.0034
      9 N           0.4455    0.1038   -0.0901 N.pl3   1  UNL1       -0.3487
     10 C           1.8607   -0.1508    0.1451 C.3     1  UNL1        0.0126
     11 C           2.7151    0.7774   -0.7224 C.3     1  UNL1       -0.0122
     12 C           4.1910    0.5485   -0.5076 C.ar    1  UNL1       -0.0457
     13 C           4.8816    1.2540    0.4886 C.ar    1  UNL1       -0.0551
     14 C           6.2432    1.0284    0.7030 C.ar    1  UNL1       -0.0199
     15 C           6.9128    0.0927   -0.0785 C.ar    1  UNL1        0.1169
     16 O           8.2413   -0.1595    0.0971 O.3     1  UNL1       -0.5068
     17 C           6.2438   -0.6188   -1.0666 C.ar    1  UNL1       -0.0199
     18 C           4.8834   -0.3935   -1.2811 C.ar    1  UNL1       -0.0551
     19 C          -2.7840   -1.0501    1.4677 C.2     1  UNL1        0.1682
     20 O          -2.3630   -1.4256    2.5617 O.2     1  UNL1       -0.2919
     21 C          -4.2603   -1.1427    1.1490 C.3     1  UNL1        0.0162
     22 H          -6.3151   -1.4694   -0.6472 H       1  UNL1        0.0235
     23 H          -6.8441   -0.3501    0.6164 H       1  UNL1        0.0235
     24 H          -6.5773    0.2372   -1.0325 H       1  UNL1        0.0235
     25 H          -5.0250    2.0139   -0.1412 H       1  UNL1        0.0235
     26 H          -3.6435    1.6054    0.8772 H       1  UNL1        0.0235
     27 H          -5.2826    1.4242    1.5056 H       1  UNL1        0.0235
     28 H          -4.1551    0.4704   -1.9173 H       1  UNL1        0.0350
     29 H          -4.0720   -1.2794   -1.6559 H       1  UNL1        0.0350
     30 H          -0.2147   -0.6319    1.7075 H       1  UNL1        0.0786
     31 H           0.1708    0.1880   -1.0778 H       1  UNL1        0.1456
     32 H           2.0960    0.0080    1.2047 H       1  UNL1        0.0464
     33 H           2.0816   -1.1997   -0.0864 H       1  UNL1        0.0464
     34 H           2.4710    1.8259   -0.5070 H       1  UNL1        0.0328
     35 H           2.4732    0.6329   -1.7836 H       1  UNL1        0.0328
     36 H           4.3607    1.9851    1.1036 H       1  UNL1        0.0621
     37 H           6.7580    1.5872    1.4778 H       1  UNL1        0.0654
     38 H           8.5715    0.4111    0.8101 H       1  UNL1        0.2921
     39 H           6.7796   -1.3472   -1.6684 H       1  UNL1        0.0654
     40 H           4.3692   -0.9571   -2.0564 H       1  UNL1        0.0621
     41 H          -4.8158   -0.9782    2.0808 H       1  UNL1        0.0350
     42 H          -4.4526   -2.1735    0.8255 H       1  UNL1        0.0350
@<TRIPOS>BOND
     1     1     2    1
     2     2     3    1
     3     2     4    1
     4     4     5    1
     5     5     6    2
     6     5     7    1
     7     7     8    2
     8     8     9    1
     9     9    10    1
    10    10    11    1
    11    11    12    1
    12    12    13   ar
    13    13    14   ar
    14    14    15   ar
    15    15    16    1
    16    15    17   ar
    17    17    18   ar
    18     7    19    1
    19    19    20    2
    20    19    21    1
    21    21     2    1
    22    18    12   ar
    23     1    22    1
    24     1    23    1
    25     1    24    1
    26     3    25    1
    27     3    26    1
    28     3    27    1
    29     4    28    1
    30     4    29    1
    31     8    30    1
    32     9    31    1
    33    10    32    1
    34    10    33    1
    35    11    34    1
    36    11    35    1
    37    13    36    1
    38    14    37    1
    39    16    38    1
    40    17    39    1
    41    18    40    1
    42    21    41    1
    43    21    42    1
