@<TRIPOS>MOLECULE
*****
 46 52 0 0 0
SMALL
GASTEIGER

@<TRIPOS>ATOM
      1 SI         -5.7530    0.7681   -2.2229 Si      1  UNL1        0.0000
      2 C          -6.6865    0.0456   -0.7717 C.2     1  UNL1        0.0000
      3 C          -5.8436   -0.2501    0.2349 C.ar    1  UNL1        0.0000
      4 C          -6.2358   -0.8066    1.5122 C.ar    1  UNL1        0.0000
      5 C          -5.2841   -1.0342    2.4354 C.ar    1  UNL1        0.0000
      6 C          -3.8740   -0.7447    2.1849 C.ar    1  UNL1        0.0000
      7 C          -3.4096   -0.2447    1.0127 C.ar    1  UNL1        0.0000
      8 C          -1.9904    0.0046    0.8772 C.2     1  UNL1        0.0000
      9 C          -1.3057    1.0589    1.3555 C.2     1  UNL1        0.0000
     10 C           0.1348    1.0289    1.0487 C.ar    1  UNL1        0.0000
     11 C           1.0048    2.0220    1.4532 C.ar    1  UNL1        0.0000
     12 C           2.3579    1.9195    1.1211 C.ar    1  UNL1        0.0000
     13 C           2.9099    0.8456    0.3830 C.ar    1  UNL1        0.0000
     14 C           4.3295    0.8801    0.1173 C.ar    1  UNL1        0.0000
     15 N           5.0750    1.9164    0.5722 N.ar    1  UNL1        0.0000
     16 C           6.4066    1.9672    0.3337 C.ar    1  UNL1        0.0000
     17 C           7.1025    1.0080   -0.3666 C.ar    1  UNL1        0.0000
     18 C           6.3858   -0.0706   -0.8521 C.ar    1  UNL1        0.0000
     19 C           4.9905   -0.1451   -0.6145 C.ar    1  UNL1        0.0000
     20 C           4.1234   -1.1795   -1.0439 C.ar    1  UNL1        0.0000
     21 C           4.5560   -2.2691   -1.7673 C.ar    1  UNL1        0.0000
     22 S           3.2766   -3.3404   -2.1349 S.2     1  UNL1        0.0000
     23 C           2.1377   -2.3452   -1.3240 C.ar    1  UNL1        0.0000
     24 C           2.7012   -1.2140   -0.7775 C.ar    1  UNL1        0.0000
     25 C           1.9961   -0.1993   -0.0430 C.ar    1  UNL1        0.0000
     26 C           0.6110   -0.0825    0.3038 C.ar    1  UNL1        0.0000
     27 SI         -0.8859   -1.1927   -0.0454 Si      1  UNL1        0.0000
     28 C          -4.4129    0.0456   -0.0257 C.ar    1  UNL1        0.0000
     29 C          -4.1727    0.5819   -1.2402 C.2     1  UNL1        0.0000
     30 H          -5.7882   -0.1176   -3.4119 H       1  UNL1        0.0000
     31 H          -6.1060    2.1867   -2.4717 H       1  UNL1        0.0000
     32 H          -7.7565   -0.0831   -0.7924 H       1  UNL1        0.0000
     33 H          -7.2794   -1.0240    1.7076 H       1  UNL1        0.0000
     34 H          -5.5438   -1.4467    3.4054 H       1  UNL1        0.0000
     35 H          -3.1943   -0.9638    3.0051 H       1  UNL1        0.0000
     36 H          -1.7469    1.8739    1.9147 H       1  UNL1        0.0000
     37 H           0.6553    2.8783    2.0230 H       1  UNL1        0.0000
     38 H           3.0079    2.7276    1.4619 H       1  UNL1        0.0000
     39 H           6.9114    2.8390    0.7410 H       1  UNL1        0.0000
     40 H           8.1700    1.0983   -0.5288 H       1  UNL1        0.0000
     41 H           6.9082   -0.8421   -1.4077 H       1  UNL1        0.0000
     42 H           5.5504   -2.5147   -2.1110 H       1  UNL1        0.0000
     43 H           1.1213   -2.6959   -1.3234 H       1  UNL1        0.0000
     44 H          -0.7550   -2.5124    0.6259 H       1  UNL1        0.0000
     45 H          -1.1753   -1.2684   -1.5018 H       1  UNL1        0.0000
     46 H          -3.2243    0.8912   -1.6485 H       1  UNL1        0.0000
@<TRIPOS>BOND
     1     1     2    1
     2     2     3    2
     3     3     4   ar
     4     4     5   ar
     5     5     6   ar
     6     6     7   ar
     7     7     8    1
     8     8     9    2
     9     9    10    1
    10    10    11   ar
    11    11    12   ar
    12    12    13   ar
    13    13    14   ar
    14    14    15   ar
    15    15    16   ar
    16    16    17   ar
    17    17    18   ar
    18    18    19   ar
    19    19    20   ar
    20    20    21   ar
    21    21    22   ar
    22    22    23   ar
    23    23    24   ar
    24    24    25   ar
    25    25    26   ar
    26    26    27    1
    27     7    28   ar
    28    28    29    2
    29    29     1    1
    30    28     3   ar
    31    27     8    1
    32    26    10   ar
    33    25    13   ar
    34    19    14   ar
    35    24    20   ar
    36     1    30    1
    37     1    31    1
    38     2    32    1
    39     4    33    1
    40     5    34    1
    41     6    35    1
    42     9    36    1
    43    11    37    1
    44    12    38    1
    45    16    39    1
    46    17    40    1
    47    18    41    1
    48    21    42    1
    49    23    43    1
    50    27    44    1
    51    27    45    1
    52    29    46    1
