@<TRIPOS>MOLECULE
*****
 40 41 0 0 0
SMALL
GASTEIGER

@<TRIPOS>ATOM
      1 C          -4.4294    1.2838   -0.5998 C.3     1  UNL1       -0.0590
      2 C          -4.2819   -0.2258   -0.3253 C.3     1  UNL1       -0.0209
      3 C          -5.6973   -0.8271   -0.2201 C.3     1  UNL1       -0.0590
      4 C          -3.5440   -0.4756    0.9989 C.3     1  UNL1        0.0162
      5 C          -2.0779   -0.0993    0.9739 C.2     1  UNL1        0.1682
      6 O          -1.4841    0.1282    2.0298 O.2     1  UNL1       -0.2919
      7 C          -1.3822   -0.0838   -0.3454 C.2     1  UNL1        0.0732
      8 C          -0.1200    0.3663   -0.4611 C.2     1  UNL1        0.0034
      9 N           0.7087    0.8691    0.5186 N.pl3   1  UNL1       -0.3486
     10 C           2.1528    1.0298    0.4079 C.3     1  UNL1        0.0140
     11 C           2.8719   -0.2876    0.6900 C.3     1  UNL1        0.0051
     12 C           4.3582   -0.1377    0.5040 C.ar    1  UNL1        0.0428
     13 C           4.9711   -0.5550   -0.6752 C.ar    1  UNL1       -0.0403
     14 C           6.3452   -0.3818   -0.8164 C.ar    1  UNL1       -0.0586
     15 C           7.0676    0.2028    0.2159 C.ar    1  UNL1       -0.0436
     16 C           6.3814    0.5927    1.3527 C.ar    1  UNL1        0.0279
     17 N           5.0489    0.4390    1.5170 N.ar    1  UNL1       -0.2598
     18 C          -2.0775   -0.5413   -1.5818 C.2     1  UNL1        0.1682
     19 O          -1.4867   -0.6547   -2.6558 O.2     1  UNL1       -0.2919
     20 C          -3.5371   -0.9250   -1.4730 C.3     1  UNL1        0.0162
     21 H          -4.9856    1.7753    0.2063 H       1  UNL1        0.0235
     22 H          -4.9760    1.4602   -1.5331 H       1  UNL1        0.0235
     23 H          -3.4638    1.7913   -0.6860 H       1  UNL1        0.0235
     24 H          -6.2608   -0.6769   -1.1476 H       1  UNL1        0.0235
     25 H          -6.2646   -0.3635    0.5946 H       1  UNL1        0.0235
     26 H          -5.6585   -1.9049   -0.0265 H       1  UNL1        0.0235
     27 H          -3.5922   -1.5373    1.2712 H       1  UNL1        0.0350
     28 H          -4.0233    0.0958    1.8034 H       1  UNL1        0.0350
     29 H           0.3628    0.3722   -1.4391 H       1  UNL1        0.0786
     30 H           0.3447    0.7622    1.4740 H       1  UNL1        0.1456
     31 H           2.4091    1.4094   -0.5890 H       1  UNL1        0.0465
     32 H           2.4718    1.7954    1.1247 H       1  UNL1        0.0465
     33 H           2.4908   -1.0854    0.0408 H       1  UNL1        0.0343
     34 H           2.6704   -0.6117    1.7186 H       1  UNL1        0.0343
     35 H           4.3937   -1.0078   -1.4747 H       1  UNL1        0.0635
     36 H           6.8469   -0.6995   -1.7258 H       1  UNL1        0.0619
     37 H           8.1384    0.3519    0.1368 H       1  UNL1        0.0633
     38 H           6.8993    1.0551    2.1879 H       1  UNL1        0.0829
     39 H          -4.0197   -0.6844   -2.4283 H       1  UNL1        0.0350
     40 H          -3.5709   -2.0145   -1.3487 H       1  UNL1        0.0350
@<TRIPOS>BOND
     1     1     2    1
     2     2     3    1
     3     2     4    1
     4     4     5    1
     5     5     6    2
     6     5     7    1
     7     7     8    2
     8     8     9    1
     9     9    10    1
    10    10    11    1
    11    11    12    1
    12    12    13   ar
    13    13    14   ar
    14    14    15   ar
    15    15    16   ar
    16    16    17   ar
    17     7    18    1
    18    18    19    2
    19    18    20    1
    20    20     2    1
    21    17    12   ar
    22     1    21    1
    23     1    22    1
    24     1    23    1
    25     3    24    1
    26     3    25    1
    27     3    26    1
    28     4    27    1
    29     4    28    1
    30     8    29    1
    31     9    30    1
    32    10    31    1
    33    10    32    1
    34    11    33    1
    35    11    34    1
    36    13    35    1
    37    14    36    1
    38    15    37    1
    39    16    38    1
    40    20    39    1
    41    20    40    1
