@<TRIPOS>MOLECULE
*****
 29 29 0 0 0
SMALL
GASTEIGER

@<TRIPOS>ATOM
      1 C          -2.7775    1.2505   -0.2730 C.3     1  UNL1       -0.0591
      2 C          -1.8267    0.1483    0.2287 C.3     1  UNL1       -0.0228
      3 C          -2.1883   -1.1620   -0.5027 C.3     1  UNL1       -0.0591
      4 C          -2.0048   -0.0191    1.7457 C.3     1  UNL1        0.0154
      5 C          -0.9565   -0.9229    2.3529 C.2     1  UNL1        0.1580
      6 O          -1.1683   -1.5633    3.3810 O.2     1  UNL1       -0.2926
      7 C           0.3847   -0.9810    1.7274 C.2     1  UNL1       -0.0025
      8 C           0.6838   -0.2862    0.6170 C.2     1  UNL1        0.0081
      9 N           1.9539   -0.3294    0.0667 N.pl3   1  UNL1       -0.3371
     10 C           2.5200    0.5892   -0.9256 C.3     1  UNL1        0.1067
     11 C           4.0197    0.3747   -1.1024 C.2     1  UNL1        0.3220
     12 O           4.7206    0.8870   -1.9617 O.2     1  UNL1       -0.2492
     13 O           4.5720   -0.4428   -0.1750 O.3     1  UNL1       -0.4795
     14 C          -0.3685    0.5594   -0.0800 C.3     1  UNL1       -0.0092
     15 H          -2.5708    2.2079    0.2184 H       1  UNL1        0.0235
     16 H          -3.8233    0.9930   -0.0706 H       1  UNL1        0.0235
     17 H          -2.6726    1.4018   -1.3532 H       1  UNL1        0.0235
     18 H          -3.2258   -1.4509   -0.2994 H       1  UNL1        0.0235
     19 H          -1.5504   -1.9987   -0.2008 H       1  UNL1        0.0235
     20 H          -2.0850   -1.0464   -1.5878 H       1  UNL1        0.0235
     21 H          -2.9925   -0.4416    1.9661 H       1  UNL1        0.0350
     22 H          -1.9320    0.9484    2.2576 H       1  UNL1        0.0350
     23 H           1.1087   -1.6047    2.2377 H       1  UNL1        0.0667
     24 H           2.6716   -0.8019    0.6231 H       1  UNL1        0.1463
     25 H           2.0418    0.4188   -1.8948 H       1  UNL1        0.0577
     26 H           2.3701    1.6245   -0.6036 H       1  UNL1        0.0577
     27 H           5.5207   -0.4715   -0.4225 H       1  UNL1        0.2951
     28 H          -0.2222    0.5148   -1.1668 H       1  UNL1        0.0331
     29 H          -0.2024    1.6042    0.2159 H       1  UNL1        0.0331
@<TRIPOS>BOND
     1     1     2    1
     2     2     3    1
     3     2     4    1
     4     4     5    1
     5     5     6    2
     6     5     7    1
     7     7     8    2
     8     8     9    1
     9     9    10    1
    10    10    11    1
    11    11    12    2
    12    11    13    1
    13     8    14    1
    14    14     2    1
    15     1    15    1
    16     1    16    1
    17     1    17    1
    18     3    18    1
    19     3    19    1
    20     3    20    1
    21     4    21    1
    22     4    22    1
    23     7    23    1
    24     9    24    1
    25    10    25    1
    26    10    26    1
    27    13    27    1
    28    14    28    1
    29    14    29    1
