@<TRIPOS>MOLECULE
*****
 38 40 0 0 0
SMALL
GASTEIGER

@<TRIPOS>ATOM
      1 C          -3.4942    1.8107   -0.6507 C.3     1  UNL1       -0.0591
      2 C          -3.5989    0.5303    0.2051 C.3     1  UNL1       -0.0225
      3 C          -4.8110    0.6827    1.1421 C.3     1  UNL1       -0.0591
      4 C          -3.8246   -0.7037   -0.7143 C.3     1  UNL1        0.0165
      5 C          -2.6093   -1.0868   -1.5646 C.2     1  UNL1        0.1720
      6 O          -2.7569   -1.6425   -2.6518 O.2     1  UNL1       -0.2914
      7 C          -1.3390   -0.7986   -0.9491 C.ar    1  UNL1        0.0790
      8 S           0.1656   -1.1887   -1.6164 S.2     1  UNL1       -0.0491
      9 C           0.9659   -0.4748   -0.2394 C.ar    1  UNL1        0.1616
     10 N           2.3254   -0.4231   -0.1065 N.pl3   1  UNL1       -0.3096
     11 C           2.8881    0.1888    1.0934 C.3     1  UNL1        0.0140
     12 C           4.1826    0.9210    0.7407 C.3     1  UNL1       -0.0371
     13 C           5.1669    0.0666   -0.0585 C.3     1  UNL1       -0.0502
     14 C           4.6222   -1.3227   -0.3695 C.3     1  UNL1       -0.0371
     15 C           3.1998   -1.2626   -0.9267 C.3     1  UNL1        0.0140
     16 N           0.1271    0.0294    0.6479 N.ar    1  UNL1       -0.2290
     17 C          -1.1771   -0.1455    0.2469 C.ar    1  UNL1        0.0616
     18 C          -2.3182    0.3476    1.0694 C.3     1  UNL1       -0.0036
     19 H          -3.3603    2.6967   -0.0194 H       1  UNL1        0.0235
     20 H          -4.4045    1.9625   -1.2425 H       1  UNL1        0.0235
     21 H          -2.6524    1.7760   -1.3489 H       1  UNL1        0.0235
     22 H          -4.6906    1.5467    1.8051 H       1  UNL1        0.0235
     23 H          -4.9409   -0.2048    1.7719 H       1  UNL1        0.0235
     24 H          -5.7366    0.8240    0.5731 H       1  UNL1        0.0235
     25 H          -4.6669   -0.5172   -1.3916 H       1  UNL1        0.0351
     26 H          -4.0764   -1.5849   -0.1109 H       1  UNL1        0.0351
     27 H           3.0768   -0.5832    1.8485 H       1  UNL1        0.0464
     28 H           2.2074    0.9199    1.5480 H       1  UNL1        0.0464
     29 H           3.9405    1.8172    0.1557 H       1  UNL1        0.0280
     30 H           4.6624    1.2774    1.6597 H       1  UNL1        0.0280
     31 H           6.1127   -0.0236    0.4888 H       1  UNL1        0.0266
     32 H           5.4054    0.5813   -0.9983 H       1  UNL1        0.0266
     33 H           4.6312   -1.9278    0.5451 H       1  UNL1        0.0280
     34 H           5.2795   -1.8300   -1.0849 H       1  UNL1        0.0280
     35 H           2.8180   -2.2909   -0.9726 H       1  UNL1        0.0464
     36 H           3.2318   -0.8652   -1.9483 H       1  UNL1        0.0464
     37 H          -2.5027   -0.3908    1.8597 H       1  UNL1        0.0334
     38 H          -2.0488    1.2889    1.5637 H       1  UNL1        0.0334
@<TRIPOS>BOND
     1     1     2    1
     2     2     3    1
     3     2     4    1
     4     4     5    1
     5     5     6    2
     6     5     7    1
     7     7     8   ar
     8     8     9   ar
     9     9    10    1
    10    10    11    1
    11    11    12    1
    12    12    13    1
    13    13    14    1
    14    14    15    1
    15     9    16   ar
    16    16    17   ar
    17    17    18    1
    18    18     2    1
    19    17     7   ar
    20    15    10    1
    21     1    19    1
    22     1    20    1
    23     1    21    1
    24     3    22    1
    25     3    23    1
    26     3    24    1
    27     4    25    1
    28     4    26    1
    29    11    27    1
    30    11    28    1
    31    12    29    1
    32    12    30    1
    33    13    31    1
    34    13    32    1
    35    14    33    1
    36    14    34    1
    37    15    35    1
    38    15    36    1
    39    18    37    1
    40    18    38    1
