@<TRIPOS>MOLECULE
*****
 45 49 0 0 0
SMALL
GASTEIGER

@<TRIPOS>ATOM
      1 C           4.8102   -0.8852   -2.1057 C.3     1  UNL1       -0.0357
      2 C           4.8782   -0.8972   -0.5700 C.3     1  UNL1        0.0698
      3 C           6.0397   -1.8084   -0.1473 C.3     1  UNL1       -0.0357
      4 C           3.5804   -1.4065    0.0755 C.3     1  UNL1        0.0187
      5 C           2.4701   -0.3882    0.0115 C.ar    1  UNL1        0.0532
      6 N           1.2131   -0.8786    0.1494 N.ar    1  UNL1       -0.2165
      7 C           0.2577    0.0661    0.1340 C.ar    1  UNL1        0.2303
      8 O          -1.0662   -0.2275    0.2549 O.2     1  UNL1       -0.4317
      9 C          -1.7459    0.9545    0.2001 C.ar    1  UNL1        0.1960
     10 C          -3.1264    1.1700    0.2761 C.ar    1  UNL1        0.1680
     11 N          -4.0898    0.1992    0.4503 N.pl3   1  UNL1       -0.3078
     12 C          -3.7633   -1.2193    0.6169 C.3     1  UNL1        0.0371
     13 C          -5.0014   -1.9868    1.1113 C.3     1  UNL1        0.0634
     14 O          -6.1368   -1.8896    0.2401 O.3     1  UNL1       -0.3767
     15 C          -6.1932   -0.6558   -0.4906 C.3     1  UNL1        0.0634
     16 C          -5.4989    0.5263    0.2070 C.3     1  UNL1        0.0371
     17 N          -3.5051    2.4763    0.1722 N.ar    1  UNL1       -0.2169
     18 C          -2.5739    3.4397    0.0174 C.ar    1  UNL1        0.1190
     19 N          -1.2431    3.2966   -0.0608 N.ar    1  UNL1       -0.2314
     20 C          -0.8554    2.0043    0.0360 C.ar    1  UNL1        0.1234
     21 C           0.4412    1.4377   -0.0030 C.ar    1  UNL1        0.0664
     22 C           1.7547    1.9100   -0.1428 C.ar    1  UNL1       -0.0402
     23 C           2.7918    0.9667   -0.1261 C.ar    1  UNL1        0.0003
     24 C           4.2164    1.4094   -0.3213 C.3     1  UNL1        0.0751
     25 O           5.1873    0.4009   -0.0409 O.3     1  UNL1       -0.3689
     26 H           4.7010   -1.8989   -2.5061 H       1  UNL1        0.0257
     27 H           5.7187   -0.4408   -2.5280 H       1  UNL1        0.0257
     28 H           3.9713   -0.2914   -2.4820 H       1  UNL1        0.0257
     29 H           5.8844   -2.8414   -0.4758 H       1  UNL1        0.0257
     30 H           6.9877   -1.4496   -0.5648 H       1  UNL1        0.0257
     31 H           6.1640   -1.8057    0.9419 H       1  UNL1        0.0257
     32 H           3.7487   -1.6070    1.1418 H       1  UNL1        0.0356
     33 H           3.2588   -2.3451   -0.3915 H       1  UNL1        0.0356
     34 H          -3.4341   -1.6308   -0.3444 H       1  UNL1        0.0487
     35 H          -2.9696   -1.3555    1.3591 H       1  UNL1        0.0487
     36 H          -5.3089   -1.6149    2.0961 H       1  UNL1        0.0575
     37 H          -4.7643   -3.0494    1.2252 H       1  UNL1        0.0575
     38 H          -5.7363   -0.8352   -1.4711 H       1  UNL1        0.0575
     39 H          -7.2494   -0.4241   -0.6616 H       1  UNL1        0.0575
     40 H          -5.9814    0.7270    1.1706 H       1  UNL1        0.0487
     41 H          -5.6226    1.4107   -0.4282 H       1  UNL1        0.0487
     42 H          -2.9516    4.4556   -0.0528 H       1  UNL1        0.1048
     43 H           1.9489    2.9720   -0.2610 H       1  UNL1        0.0630
     44 H           4.4331    2.2487    0.3485 H       1  UNL1        0.0611
     45 H           4.3601    1.7612   -1.3492 H       1  UNL1        0.0611
@<TRIPOS>BOND
     1     1     2    1
     2     2     3    1
     3     2     4    1
     4     4     5    1
     5     5     6   ar
     6     6     7   ar
     7     7     8   ar
     8     8     9   ar
     9     9    10   ar
    10    10    11    1
    11    11    12    1
    12    12    13    1
    13    13    14    1
    14    14    15    1
    15    15    16    1
    16    10    17   ar
    17    17    18   ar
    18    18    19   ar
    19    19    20   ar
    20    20    21   ar
    21    21    22   ar
    22    22    23   ar
    23    23    24    1
    24    24    25    1
    25    25     2    1
    26    23     5   ar
    27    21     7   ar
    28    20     9   ar
    29    16    11    1
    30     1    26    1
    31     1    27    1
    32     1    28    1
    33     3    29    1
    34     3    30    1
    35     3    31    1
    36     4    32    1
    37     4    33    1
    38    12    34    1
    39    12    35    1
    40    13    36    1
    41    13    37    1
    42    15    38    1
    43    15    39    1
    44    16    40    1
    45    16    41    1
    46    18    42    1
    47    22    43    1
    48    24    44    1
    49    24    45    1
