@<TRIPOS>MOLECULE
*****
 30 32 0 0 0
SMALL
GASTEIGER

@<TRIPOS>ATOM
      1 C          -3.6507    0.1159    1.6296 C.3     1  UNL1       -0.0486
      2 C          -2.8554   -0.1144    0.3457 C.3     1  UNL1        0.0364
      3 C          -3.4059    0.7542   -0.7910 C.3     1  UNL1       -0.0486
      4 C          -1.3414    0.1422    0.5615 C.3     1  UNL1        0.0417
      5 N          -0.6299   -0.8909   -0.1537 N.ar    1  UNL1       -0.3008
      6 C          -1.3291   -1.9906   -0.5149 C.ar    1  UNL1        0.1925
      7 N          -0.5415   -2.8994   -1.0104 N.ar    1  UNL1       -0.1221
      8 N           0.7405   -2.3657   -0.9478 N.ar    1  UNL1       -0.1283
      9 C           0.6790   -1.1449   -0.4259 C.ar    1  UNL1        0.1650
     10 C           1.8160   -0.2806   -0.1295 C.ar    1  UNL1        0.0227
     11 C           1.8031    1.0913   -0.4193 C.ar    1  UNL1       -0.0508
     12 C           2.9079    1.8917   -0.1145 C.ar    1  UNL1       -0.0576
     13 C           4.0380    1.3252    0.4713 C.ar    1  UNL1       -0.0201
     14 C           4.0635   -0.0381    0.7358 C.ar    1  UNL1        0.1175
     15 O           5.1950   -0.5561    1.2929 O.3     1  UNL1       -0.5067
     16 C           2.9683   -0.8442    0.4379 C.ar    1  UNL1       -0.0095
     17 S          -3.0013   -1.8972   -0.1639 S.3     1  UNL1       -0.0780
     18 H          -3.2945   -0.5210    2.4476 H       1  UNL1        0.0244
     19 H          -4.7184   -0.0853    1.4856 H       1  UNL1        0.0244
     20 H          -3.5547    1.1563    1.9610 H       1  UNL1        0.0244
     21 H          -4.4633    0.5412   -0.9868 H       1  UNL1        0.0244
     22 H          -2.8514    0.6072   -1.7252 H       1  UNL1        0.0244
     23 H          -3.3309    1.8173   -0.5338 H       1  UNL1        0.0244
     24 H          -1.0347    1.1212    0.1854 H       1  UNL1        0.0506
     25 H          -1.0504    0.0550    1.6147 H       1  UNL1        0.0506
     26 H           0.9508    1.5500   -0.9129 H       1  UNL1        0.0625
     27 H           2.8945    2.9537   -0.3461 H       1  UNL1        0.0619
     28 H           4.9024    1.9401    0.7062 H       1  UNL1        0.0654
     29 H           5.1000   -1.5221    1.3470 H       1  UNL1        0.2921
     30 H           2.9946   -1.9120    0.6423 H       1  UNL1        0.0661
@<TRIPOS>BOND
     1     1     2    1
     2     2     3    1
     3     2     4    1
     4     4     5    1
     5     5     6   ar
     6     6     7   ar
     7     7     8   ar
     8     8     9   ar
     9     9    10    1
    10    10    11   ar
    11    11    12   ar
    12    12    13   ar
    13    13    14   ar
    14    14    15    1
    15    14    16   ar
    16     6    17    1
    17    17     2    1
    18     9     5   ar
    19    16    10   ar
    20     1    18    1
    21     1    19    1
    22     1    20    1
    23     3    21    1
    24     3    22    1
    25     3    23    1
    26     4    24    1
    27     4    25    1
    28    11    26    1
    29    12    27    1
    30    13    28    1
    31    15    29    1
    32    16    30    1
