@<TRIPOS>MOLECULE
*****
 45 47 0 0 0
SMALL
GASTEIGER

@<TRIPOS>ATOM
      1 C          -4.4588    0.7112   -1.2117 C.3     1  UNL1       -0.0580
      2 C          -4.3180    1.5590    0.0665 C.3     1  UNL1       -0.0139
      3 C          -4.9384    2.9458   -0.2258 C.3     1  UNL1       -0.0580
      4 C          -5.0725    0.9495    1.2600 C.3     1  UNL1        0.0174
      5 N          -4.9120   -0.4749    1.4364 N.am    1  UNL1       -0.3103
      6 C          -3.7720   -1.2037    1.6534 C.2     1  UNL1        0.2526
      7 O          -3.9420   -2.3601    2.0478 O.2     1  UNL1       -0.2696
      8 C          -2.4714   -0.6244    1.3964 C.ar    1  UNL1        0.0982
      9 S          -1.0779   -1.5953    1.7333 S.2     1  UNL1       -0.0472
     10 C          -0.0726   -0.3387    1.1988 C.ar    1  UNL1        0.1653
     11 N           1.2602   -0.6287    1.2615 N.am    1  UNL1       -0.2636
     12 C           2.2363    0.2721    0.8805 C.2     1  UNL1        0.2327
     13 O           2.0518    1.4175    0.4788 O.2     1  UNL1       -0.2740
     14 C           3.6533   -0.3160    1.0199 C.3     1  UNL1        0.0762
     15 N           4.3692   -0.3096   -0.2661 N.3     1  UNL1       -0.2897
     16 C           5.8126   -0.5438   -0.0696 C.3     1  UNL1        0.0229
     17 C           6.4905   -1.0003   -1.3689 C.3     1  UNL1        0.0604
     18 O           6.0014   -2.2695   -1.8246 O.3     1  UNL1       -0.3772
     19 C           4.6347   -2.5115   -1.4647 C.3     1  UNL1        0.0604
     20 C           3.8094   -1.2271   -1.2774 C.3     1  UNL1        0.0229
     21 N          -0.6731    0.7428    0.7927 N.ar    1  UNL1       -0.2288
     22 C          -2.0540    0.5950    0.8824 C.ar    1  UNL1        0.0633
     23 C          -2.8437    1.7837    0.4384 C.3     1  UNL1       -0.0025
     24 H          -3.9970   -0.2760   -1.1158 H       1  UNL1        0.0236
     25 H          -5.5144    0.5586   -1.4660 H       1  UNL1        0.0236
     26 H          -3.9816    1.2065   -2.0658 H       1  UNL1        0.0236
     27 H          -5.9910    2.8564   -0.5162 H       1  UNL1        0.0236
     28 H          -4.8906    3.5967    0.6549 H       1  UNL1        0.0236
     29 H          -4.4116    3.4515   -1.0430 H       1  UNL1        0.0236
     30 H          -6.1519    1.1047    1.1367 H       1  UNL1        0.0467
     31 H          -4.7862    1.4360    2.2009 H       1  UNL1        0.0467
     32 H          -5.7314   -1.0009    1.7176 H       1  UNL1        0.1490
     33 H           1.4985   -1.5488    1.5966 H       1  UNL1        0.1568
     34 H           4.1686    0.3245    1.7479 H       1  UNL1        0.0522
     35 H           3.6226   -1.3272    1.4439 H       1  UNL1        0.0522
     36 H           6.2813    0.3801    0.2857 H       1  UNL1        0.0449
     37 H           5.9717   -1.3192    0.6911 H       1  UNL1        0.0449
     38 H           7.5696   -1.1022   -1.2146 H       1  UNL1        0.0572
     39 H           6.3438   -0.2657   -2.1698 H       1  UNL1        0.0572
     40 H           4.6285   -3.1094   -0.5454 H       1  UNL1        0.0572
     41 H           4.1932   -3.1280   -2.2550 H       1  UNL1        0.0572
     42 H           2.7663   -1.4886   -1.0694 H       1  UNL1        0.0449
     43 H           3.8045   -0.6824   -2.2299 H       1  UNL1        0.0449
     44 H          -2.7799    2.5282    1.2453 H       1  UNL1        0.0334
     45 H          -2.3258    2.2326   -0.4213 H       1  UNL1        0.0334
@<TRIPOS>BOND
     1     1     2    1
     2     2     3    1
     3     2     4    1
     4     4     5    1
     5     5     6   am
     6     6     7    2
     7     6     8    1
     8     8     9   ar
     9     9    10   ar
    10    10    11    1
    11    11    12   am
    12    12    13    2
    13    12    14    1
    14    14    15    1
    15    15    16    1
    16    16    17    1
    17    17    18    1
    18    18    19    1
    19    19    20    1
    20    10    21   ar
    21    21    22   ar
    22    22    23    1
    23    23     2    1
    24    22     8   ar
    25    20    15    1
    26     1    24    1
    27     1    25    1
    28     1    26    1
    29     3    27    1
    30     3    28    1
    31     3    29    1
    32     4    30    1
    33     4    31    1
    34     5    32    1
    35    11    33    1
    36    14    34    1
    37    14    35    1
    38    16    36    1
    39    16    37    1
    40    17    38    1
    41    17    39    1
    42    19    40    1
    43    19    41    1
    44    20    42    1
    45    20    43    1
    46    23    44    1
    47    23    45    1
