@<TRIPOS>MOLECULE
*****
 35 39 0 0 0
SMALL
GASTEIGER

@<TRIPOS>ATOM
      1 C          -3.4181    0.0457   -2.0340 C.3     1  UNL1       -0.0209
      2 C          -3.0291   -0.4366   -0.6271 C.3     1  UNL1        0.1311
      3 C          -3.9827   -1.5614   -0.1933 C.3     1  UNL1       -0.0209
      4 O          -1.7258   -1.0931   -0.7755 O.3     1  UNL1       -0.4804
      5 C          -0.6321   -0.4355   -0.3005 C.ar    1  UNL1        0.1376
      6 C           0.6994   -0.8583   -0.5555 C.ar    1  UNL1       -0.0043
      7 C           1.6322   -0.0462    0.0645 C.ar    1  UNL1        0.0285
      8 C           3.0853   -0.1335    0.0196 C.ar    1  UNL1        0.0550
      9 C           3.8600   -0.3033    1.2030 C.ar    1  UNL1        0.1110
     10 N           3.4171   -0.4158    2.4675 N.ar    1  UNL1       -0.1901
     11 S           4.7467   -0.5855    3.4414 S.2     1  UNL1        0.1165
     12 N           5.9623   -0.5500    2.3123 N.ar    1  UNL1       -0.1907
     13 C           5.3718   -0.3966    1.1185 C.ar    1  UNL1        0.1034
     14 C           6.0446   -0.3270   -0.1209 C.ar    1  UNL1        0.0047
     15 C           5.2231   -0.1778   -1.2432 C.ar    1  UNL1        0.1612
     16 F           5.8157   -0.1181   -2.4460 F       1  UNL1       -0.2024
     17 C           3.8157   -0.0892   -1.1827 C.ar    1  UNL1        0.1687
     18 F           3.1499    0.0500   -2.3421 F       1  UNL1       -0.2018
     19 S           0.8703    1.2333    0.9230 S.2     1  UNL1       -0.0838
     20 C          -0.6783    0.6817    0.5029 C.ar    1  UNL1        0.0685
     21 C          -1.9242    1.2545    0.8844 C.ar    1  UNL1        0.0363
     22 S          -2.1952    2.5495    1.9396 S.2     1  UNL1       -0.0956
     23 C          -3.8903    2.4359    1.7206 C.ar    1  UNL1       -0.0233
     24 C          -4.2325    1.4223    0.8498 C.ar    1  UNL1       -0.0472
     25 C          -3.0823    0.7218    0.3605 C.ar    1  UNL1        0.0105
     26 H          -4.4295    0.4657   -2.0581 H       1  UNL1        0.0271
     27 H          -3.3662   -0.7751   -2.7587 H       1  UNL1        0.0271
     28 H          -2.7232    0.8170   -2.3872 H       1  UNL1        0.0271
     29 H          -3.7084   -1.9394    0.7990 H       1  UNL1        0.0271
     30 H          -3.9207   -2.4147   -0.8789 H       1  UNL1        0.0271
     31 H          -5.0255   -1.2291   -0.1538 H       1  UNL1        0.0271
     32 H           0.9563   -1.7177   -1.1620 H       1  UNL1        0.0666
     33 H           7.1217   -0.3922   -0.2027 H       1  UNL1        0.0669
     34 H          -4.5505    3.1191    2.2372 H       1  UNL1        0.0694
     35 H          -5.2575    1.1996    0.5784 H       1  UNL1        0.0627
@<TRIPOS>BOND
     1     1     2    1
     2     2     3    1
     3     2     4    1
     4     4     5    1
     5     5     6   ar
     6     6     7   ar
     7     7     8    1
     8     8     9   ar
     9     9    10   ar
    10    10    11   ar
    11    11    12   ar
    12    12    13   ar
    13    13    14   ar
    14    14    15   ar
    15    15    16    1
    16    15    17   ar
    17    17    18    1
    18     7    19   ar
    19    19    20   ar
    20    20    21    1
    21    21    22   ar
    22    22    23   ar
    23    23    24   ar
    24    24    25   ar
    25    25     2    1
    26    20     5   ar
    27    25    21   ar
    28    17     8   ar
    29    13     9   ar
    30     1    26    1
    31     1    27    1
    32     1    28    1
    33     3    29    1
    34     3    30    1
    35     3    31    1
    36     6    32    1
    37    14    33    1
    38    23    34    1
    39    24    35    1
