@<TRIPOS>MOLECULE
*****
 46 49 0 0 0
SMALL
GASTEIGER

@<TRIPOS>ATOM
      1 C          -2.1103    2.1899   -0.1072 C.3     1  UNL1       -0.0517
      2 C          -1.9082    0.8466    0.6030 C.3     1  UNL1        0.0162
      3 C          -3.0126   -0.1448    0.2277 C.ar    1  UNL1       -0.0294
      4 C          -2.4582   -1.2688   -0.4210 C.ar    1  UNL1       -0.0136
      5 C          -3.2725   -2.2998   -0.8580 C.ar    1  UNL1       -0.0535
      6 C          -4.6511   -2.2028   -0.6392 C.ar    1  UNL1       -0.0582
      7 C          -5.2104   -1.0892    0.0207 C.ar    1  UNL1       -0.0501
      8 C          -6.6965   -0.9987    0.2127 C.3     1  UNL1       -0.0397
      9 C          -4.3804   -0.0433    0.4476 C.ar    1  UNL1       -0.0542
     10 C          -1.0234   -1.1025   -0.5121 C.ar    1  UNL1       -0.0136
     11 C          -0.0560   -1.9305   -1.0539 C.ar    1  UNL1       -0.0532
     12 C           1.2813   -1.5188   -1.0043 C.ar    1  UNL1       -0.0534
     13 C           1.6573   -0.2883   -0.4177 C.ar    1  UNL1       -0.0163
     14 C           3.0726    0.1163   -0.3875 C.ar    1  UNL1       -0.0005
     15 C           3.8275    0.1672    0.8012 C.ar    1  UNL1        0.0597
     16 C           3.2567   -0.1830    2.0727 C.1     1  UNL1        0.0998
     17 N           2.8240   -0.4480    3.1171 N.1     1  UNL1       -0.1909
     18 C           5.1765    0.5612    0.7680 C.ar    1  UNL1       -0.0408
     19 C           3.7075    0.4707   -1.5919 C.ar    1  UNL1       -0.0526
     20 C           5.0490    0.8620   -1.6179 C.ar    1  UNL1       -0.0582
     21 C           5.7983    0.8984   -0.4400 C.ar    1  UNL1       -0.0492
     22 C           7.2289    1.3500   -0.4603 C.3     1  UNL1       -0.0397
     23 C           0.6622    0.5430    0.1233 C.ar    1  UNL1       -0.0494
     24 C          -0.6635    0.1284    0.0748 C.ar    1  UNL1       -0.0291
     25 C          -1.8300    1.0333    2.1225 C.3     1  UNL1       -0.0517
     26 H          -3.0377    2.6766    0.2159 H       1  UNL1        0.0241
     27 H          -2.1668    2.0676   -1.1958 H       1  UNL1        0.0241
     28 H          -1.2848    2.8801    0.1019 H       1  UNL1        0.0241
     29 H          -2.8610   -3.1675   -1.3620 H       1  UNL1        0.0624
     30 H          -5.2966   -3.0073   -0.9864 H       1  UNL1        0.0620
     31 H          -7.1341   -1.9939    0.3446 H       1  UNL1        0.0278
     32 H          -7.1572   -0.5210   -0.6574 H       1  UNL1        0.0278
     33 H          -6.9405   -0.4160    1.1072 H       1  UNL1        0.0278
     34 H          -4.7963    0.8289    0.9429 H       1  UNL1        0.0623
     35 H          -0.3175   -2.8816   -1.5053 H       1  UNL1        0.0624
     36 H           2.0441   -2.1727   -1.4243 H       1  UNL1        0.0624
     37 H           5.7479    0.6022    1.6952 H       1  UNL1        0.0633
     38 H           3.1478    0.4519   -2.5265 H       1  UNL1        0.0624
     39 H           5.5025    1.1383   -2.5680 H       1  UNL1        0.0620
     40 H           7.7045    1.0992   -1.4142 H       1  UNL1        0.0278
     41 H           7.2813    2.4330   -0.3126 H       1  UNL1        0.0278
     42 H           7.8050    0.8560    0.3292 H       1  UNL1        0.0278
     43 H           0.9193    1.4969    0.5755 H       1  UNL1        0.0627
     44 H          -2.7485    1.4828    2.5171 H       1  UNL1        0.0241
     45 H          -1.6845    0.0774    2.6408 H       1  UNL1        0.0241
     46 H          -0.9956    1.6869    2.4020 H       1  UNL1        0.0241
@<TRIPOS>BOND
     1     1     2    1
     2     2     3    1
     3     3     4   ar
     4     4     5   ar
     5     5     6   ar
     6     6     7   ar
     7     7     8    1
     8     7     9   ar
     9     4    10    1
    10    10    11   ar
    11    11    12   ar
    12    12    13   ar
    13    13    14    1
    14    14    15   ar
    15    15    16    1
    16    16    17    3
    17    15    18   ar
    18    14    19   ar
    19    19    20   ar
    20    20    21   ar
    21    21    22    1
    22    13    23   ar
    23    23    24   ar
    24     2    25    1
    25    24     2    1
    26     9     3   ar
    27    24    10   ar
    28    21    18   ar
    29     1    26    1
    30     1    27    1
    31     1    28    1
    32     5    29    1
    33     6    30    1
    34     8    31    1
    35     8    32    1
    36     8    33    1
    37     9    34    1
    38    11    35    1
    39    12    36    1
    40    18    37    1
    41    19    38    1
    42    20    39    1
    43    22    40    1
    44    22    41    1
    45    22    42    1
    46    23    43    1
    47    25    44    1
    48    25    45    1
    49    25    46    1
