@<TRIPOS>MOLECULE
*****
 36 38 0 0 0
SMALL
GASTEIGER

@<TRIPOS>ATOM
      1 C          -0.4426    3.1507   -0.2743 C.3     1  UNL1       -0.0242
      2 C           0.4792    1.9889   -0.2620 C.ar    1  UNL1        0.0174
      3 N           1.8163    2.1566    0.0109 N.ar    1  UNL1       -0.3570
      4 C           2.5030    0.9754   -0.1596 C.ar    1  UNL1        0.0611
      5 C           3.8699    0.6921   -0.0476 C.ar    1  UNL1        0.0417
      6 BR          5.1171    2.0231    0.4420 Br      1  UNL1       -0.0482
      7 C           4.3011   -0.6087   -0.3172 C.ar    1  UNL1       -0.0457
      8 C           3.3908   -1.5922   -0.6961 C.ar    1  UNL1       -0.0600
      9 C           2.0262   -1.2974   -0.8031 C.ar    1  UNL1       -0.0522
     10 C           1.5657    0.0045   -0.5153 C.ar    1  UNL1        0.0045
     11 C           0.2942    0.6436   -0.5052 C.ar    1  UNL1       -0.0155
     12 C          -1.0511   -0.0377   -0.8746 C.3     1  UNL1       -0.0039
     13 C          -2.2829    0.0475    0.0079 C.3     1  UNL1       -0.0152
     14 C          -2.3162    0.7948    1.3085 C.3     1  UNL1        0.0387
     15 C          -3.3872    0.1600    2.0893 C.1     1  UNL1        0.0628
     16 N          -4.2383   -0.3288    2.7100 N.1     1  UNL1       -0.1966
     17 C          -1.5633   -1.2836   -0.1557 C.3     1  UNL1       -0.0234
     18 C          -2.2478   -2.3312   -1.0029 C.3     1  UNL1       -0.0589
     19 C          -0.8387   -1.8771    1.0310 C.3     1  UNL1       -0.0589
     20 H          -0.7053    3.4408    0.7476 H       1  UNL1        0.0292
     21 H          -1.3631    2.9223   -0.8198 H       1  UNL1        0.0292
     22 H           0.0243    4.0119   -0.7640 H       1  UNL1        0.0292
     23 H           2.2614    3.0349    0.2413 H       1  UNL1        0.1656
     24 H           5.3558   -0.8622   -0.2414 H       1  UNL1        0.0629
     25 H           3.7406   -2.5986   -0.9138 H       1  UNL1        0.0618
     26 H           1.3286   -2.0708   -1.1107 H       1  UNL1        0.0624
     27 H          -1.2370    0.0108   -1.9464 H       1  UNL1        0.0358
     28 H          -3.2220    0.1814   -0.5275 H       1  UNL1        0.0322
     29 H          -1.3703    0.7661    1.8552 H       1  UNL1        0.0421
     30 H          -2.5704    1.8433    1.1271 H       1  UNL1        0.0421
     31 H          -2.9619   -2.9015   -0.3997 H       1  UNL1        0.0235
     32 H          -2.7962   -1.8884   -1.8414 H       1  UNL1        0.0235
     33 H          -1.5096   -3.0266   -1.4157 H       1  UNL1        0.0235
     34 H          -0.2397   -1.1495    1.5847 H       1  UNL1        0.0235
     35 H          -1.5610   -2.3133    1.7296 H       1  UNL1        0.0235
     36 H          -0.1696   -2.6814    0.7089 H       1  UNL1        0.0235
@<TRIPOS>BOND
     1     1     2    1
     2     2     3   ar
     3     3     4   ar
     4     4     5   ar
     5     5     6    1
     6     5     7   ar
     7     7     8   ar
     8     8     9   ar
     9     9    10   ar
    10    10    11   ar
    11    11    12    1
    12    12    13    1
    13    13    14    1
    14    14    15    1
    15    15    16    3
    16    13    17    1
    17    17    18    1
    18    17    19    1
    19    11     2   ar
    20    17    12    1
    21    10     4   ar
    22     1    20    1
    23     1    21    1
    24     1    22    1
    25     3    23    1
    26     7    24    1
    27     8    25    1
    28     9    26    1
    29    12    27    1
    30    13    28    1
    31    14    29    1
    32    14    30    1
    33    18    31    1
    34    18    32    1
    35    18    33    1
    36    19    34    1
    37    19    35    1
    38    19    36    1
