@<TRIPOS>MOLECULE
*****
 35 37 0 0 0
SMALL
GASTEIGER

@<TRIPOS>ATOM
      1 C          -2.8494    1.4730   -3.4427 C.3     1  UNL1       -0.0237
      2 C          -2.6182    1.0168   -2.0433 C.ar    1  UNL1        0.0245
      3 N          -3.6719    0.6799   -1.2387 N.ar    1  UNL1       -0.3576
      4 C          -3.2306    0.2902   -0.0009 C.ar    1  UNL1        0.0473
      5 C          -3.9760   -0.1279    1.1099 C.ar    1  UNL1       -0.0378
      6 C          -3.2838   -0.4769    2.2685 C.ar    1  UNL1       -0.0598
      7 C          -1.8979   -0.4087    2.3094 C.ar    1  UNL1       -0.0611
      8 C          -1.1695    0.0122    1.1880 C.ar    1  UNL1       -0.0519
      9 C          -1.8349    0.3743   -0.0078 C.ar    1  UNL1        0.0104
     10 C          -1.4386    0.8415   -1.3190 C.ar    1  UNL1        0.0462
     11 C          -0.1016    1.1175   -1.8857 C.2     1  UNL1        0.1755
     12 O           0.0176    1.6053   -3.0156 O.2     1  UNL1       -0.2911
     13 C           1.1569    0.8280   -1.0973 C.3     1  UNL1        0.0614
     14 S           1.5450   -0.9520   -1.1613 S.3     1  UNL1       -0.1172
     15 C           2.8147   -1.0345    0.0857 C.ar    1  UNL1        0.0084
     16 C           3.9701   -0.2491    0.0130 C.ar    1  UNL1       -0.0469
     17 C           4.9490   -0.3414    1.0069 C.ar    1  UNL1       -0.0423
     18 C           4.7765   -1.2257    2.0698 C.ar    1  UNL1        0.0410
     19 CL          5.9802   -1.3376    3.2932 Cl      1  UNL1       -0.0835
     20 C           3.6366   -2.0229    2.1443 C.ar    1  UNL1       -0.0423
     21 C           2.6592   -1.9300    1.1497 C.ar    1  UNL1       -0.0469
     22 H          -2.3247    0.8229   -4.1499 H       1  UNL1        0.0292
     23 H          -3.9134    1.4541   -3.7012 H       1  UNL1        0.0292
     24 H          -2.4926    2.4993   -3.5746 H       1  UNL1        0.0292
     25 H          -4.6448    0.7110   -1.5113 H       1  UNL1        0.1656
     26 H          -5.0597   -0.1814    1.0761 H       1  UNL1        0.0638
     27 H          -3.8354   -0.8057    3.1460 H       1  UNL1        0.0618
     28 H          -1.3703   -0.6849    3.2192 H       1  UNL1        0.0618
     29 H          -0.0903    0.0431    1.2763 H       1  UNL1        0.0624
     30 H           1.0633    1.2094   -0.0785 H       1  UNL1        0.0461
     31 H           1.9799    1.3817   -1.5633 H       1  UNL1        0.0461
     32 H           4.1309    0.4294   -0.8213 H       1  UNL1        0.0629
     33 H           5.8438    0.2722    0.9409 H       1  UNL1        0.0632
     34 H           3.5036   -2.7202    2.9672 H       1  UNL1        0.0632
     35 H           1.7760   -2.5629    1.2136 H       1  UNL1        0.0629
@<TRIPOS>BOND
     1     1     2    1
     2     2     3   ar
     3     3     4   ar
     4     4     5   ar
     5     5     6   ar
     6     6     7   ar
     7     7     8   ar
     8     8     9   ar
     9     9    10   ar
    10    10    11    1
    11    11    12    2
    12    11    13    1
    13    13    14    1
    14    14    15    1
    15    15    16   ar
    16    16    17   ar
    17    17    18   ar
    18    18    19    1
    19    18    20   ar
    20    20    21   ar
    21    10     2   ar
    22    21    15   ar
    23     9     4   ar
    24     1    22    1
    25     1    23    1
    26     1    24    1
    27     3    25    1
    28     5    26    1
    29     6    27    1
    30     7    28    1
    31     8    29    1
    32    13    30    1
    33    13    31    1
    34    16    32    1
    35    17    33    1
    36    20    34    1
    37    21    35    1
