@<TRIPOS>MOLECULE
*****
 45 52 0 0 0
SMALL
GASTEIGER

@<TRIPOS>ATOM
      1 SI          5.2346    1.1233   -2.4640 Si      1  UNL1        0.0000
      2 C           6.3253    0.7620   -0.9890 C.2     1  UNL1        0.0000
      3 C           5.6099    0.2063    0.0063 C.ar    1  UNL1        0.0000
      4 C           6.1522   -0.2275    1.2766 C.ar    1  UNL1        0.0000
      5 C           5.3239   -0.7955    2.1717 C.ar    1  UNL1        0.0000
      6 C           3.8970   -0.9712    1.9077 C.ar    1  UNL1        0.0000
      7 C           3.2999   -0.5833    0.7540 C.ar    1  UNL1        0.0000
      8 C           1.8905   -0.7829    0.6568 C.ar    1  UNL1        0.0000
      9 C           1.0794   -1.8981    0.8162 C.ar    1  UNL1        0.0000
     10 C          -0.2396   -1.4298    0.5986 C.ar    1  UNL1        0.0000
     11 N          -1.5528   -1.8596    0.5623 N.ar    1  UNL1        0.0000
     12 C          -2.3669   -0.7784    0.2685 C.ar    1  UNL1        0.0000
     13 C          -1.5089    0.2915    0.1346 C.ar    1  UNL1        0.0000
     14 C          -1.9973    1.5709   -0.1686 C.ar    1  UNL1        0.0000
     15 C          -1.3986    2.7741   -0.3536 C.ar    1  UNL1        0.0000
     16 O          -2.3914    3.6820   -0.6308 O.2     1  UNL1        0.0000
     17 C          -3.5908    3.0088   -0.6085 C.ar    1  UNL1        0.0000
     18 C          -3.3936    1.6762   -0.3217 C.ar    1  UNL1        0.0000
     19 C          -4.3720    0.6524   -0.2082 C.ar    1  UNL1        0.0000
     20 C          -5.7804    0.8281   -0.3764 C.ar    1  UNL1        0.0000
     21 C          -6.6965   -0.2303   -0.2500 C.ar    1  UNL1        0.0000
     22 C          -6.1626   -1.5073    0.0571 C.ar    1  UNL1        0.0000
     23 N          -6.8824   -2.6287    0.2146 N.ar    1  UNL1        0.0000
     24 S          -5.8022   -3.8389    0.5598 S.2     1  UNL1        0.0000
     25 N          -4.3696   -3.0020    0.5269 N.ar    1  UNL1        0.0000
     26 C          -4.6750   -1.7209    0.2405 C.ar    1  UNL1        0.0000
     27 C          -3.7696   -0.6302    0.1066 C.ar    1  UNL1        0.0000
     28 C          -0.1930   -0.0909    0.3341 C.ar    1  UNL1        0.0000
     29 N           1.1079    0.3172    0.3750 N.ar    1  UNL1        0.0000
     30 C           4.1631    0.0234   -0.2738 C.ar    1  UNL1        0.0000
     31 C           3.7864    0.4287   -1.5049 C.2     1  UNL1        0.0000
     32 H           5.0910    2.5777   -2.7162 H       1  UNL1        0.0000
     33 H           5.5850    0.2991   -3.6455 H       1  UNL1        0.0000
     34 H           7.3822    0.9741   -0.9991 H       1  UNL1        0.0000
     35 H           7.2085   -0.1002    1.4831 H       1  UNL1        0.0000
     36 H           5.6985   -1.1372    3.1317 H       1  UNL1        0.0000
     37 H           3.3210   -1.4184    2.7142 H       1  UNL1        0.0000
     38 H           1.4025   -2.9036    1.0475 H       1  UNL1        0.0000
     39 H          -1.8515   -2.8135    0.7252 H       1  UNL1        0.0000
     40 H          -0.3920    3.1631   -0.3357 H       1  UNL1        0.0000
     41 H          -4.4559    3.6231   -0.8138 H       1  UNL1        0.0000
     42 H          -6.1744    1.8159   -0.6120 H       1  UNL1        0.0000
     43 H          -7.7627   -0.0852   -0.3797 H       1  UNL1        0.0000
     44 H           1.4162    1.2683    0.2230 H       1  UNL1        0.0000
     45 H           2.8049    0.3673   -1.9464 H       1  UNL1        0.0000
@<TRIPOS>BOND
     1     1     2    1
     2     2     3    2
     3     3     4   ar
     4     4     5   ar
     5     5     6   ar
     6     6     7   ar
     7     7     8    1
     8     8     9   ar
     9     9    10   ar
    10    10    11   ar
    11    11    12   ar
    12    12    13   ar
    13    13    14   ar
    14    14    15   ar
    15    15    16   ar
    16    16    17   ar
    17    17    18   ar
    18    18    19   ar
    19    19    20   ar
    20    20    21   ar
    21    21    22   ar
    22    22    23   ar
    23    23    24   ar
    24    24    25   ar
    25    25    26   ar
    26    26    27   ar
    27    13    28   ar
    28    28    29   ar
    29     7    30   ar
    30    30    31    2
    31    31     1    1
    32    30     3   ar
    33    29     8   ar
    34    28    10   ar
    35    27    12   ar
    36    18    14   ar
    37    27    19   ar
    38    26    22   ar
    39     1    32    1
    40     1    33    1
    41     2    34    1
    42     4    35    1
    43     5    36    1
    44     6    37    1
    45     9    38    1
    46    11    39    1
    47    15    40    1
    48    17    41    1
    49    20    42    1
    50    21    43    1
    51    29    44    1
    52    31    45    1
