@<TRIPOS>MOLECULE
*****
 32 34 0 0 0
SMALL
GASTEIGER

@<TRIPOS>ATOM
      1 C           0.7335   -3.2607   -0.0375 C.3     1  UNL1       -0.0242
      2 C           1.0617   -1.8120   -0.0894 C.ar    1  UNL1        0.0175
      3 N           2.0740   -1.3415   -0.8881 N.ar    1  UNL1       -0.3579
      4 C           2.2088    0.0180   -0.7508 C.ar    1  UNL1        0.0469
      5 C           3.1096    0.8980   -1.3634 C.ar    1  UNL1       -0.0378
      6 C           3.0277    2.2507   -1.0236 C.ar    1  UNL1       -0.0598
      7 C           2.0842    2.7009   -0.1048 C.ar    1  UNL1       -0.0611
      8 C           1.1922    1.8061    0.4981 C.ar    1  UNL1       -0.0523
      9 C           1.2476    0.4353    0.1681 C.ar    1  UNL1        0.0035
     10 C           0.5039   -0.7249    0.5712 C.ar    1  UNL1       -0.0121
     11 C          -0.6375   -0.7637    1.5447 C.3     1  UNL1        0.0348
     12 C          -1.7243    0.2330    1.2308 C.ar    1  UNL1        0.1360
     13 N          -2.0152    1.2241    2.0311 N.ar    1  UNL1       -0.1582
     14 N          -3.0277    1.8804    1.3965 N.ar    1  UNL1       -0.2543
     15 C          -3.3241    1.2592    0.1938 C.ar    1  UNL1        0.1753
     16 S          -4.4722    1.8051   -0.8676 S.2     1  UNL1       -0.0115
     17 N          -2.4905    0.1719    0.1155 N.ar    1  UNL1       -0.3100
     18 C          -2.3823   -0.7722   -0.9807 C.3     1  UNL1        0.0154
     19 H          -0.2001   -3.4578   -0.5732 H       1  UNL1        0.0292
     20 H           1.5221   -3.8687   -0.4927 H       1  UNL1        0.0292
     21 H           0.6141   -3.5910    0.9992 H       1  UNL1        0.0292
     22 H           2.6579   -1.9103   -1.4852 H       1  UNL1        0.1656
     23 H           3.8496    0.5488   -2.0758 H       1  UNL1        0.0638
     24 H           3.7129    2.9605   -1.4810 H       1  UNL1        0.0618
     25 H           2.0371    3.7565    0.1507 H       1  UNL1        0.0618
     26 H           0.4663    2.1766    1.2165 H       1  UNL1        0.0624
     27 H          -0.2521   -0.5620    2.5514 H       1  UNL1        0.0393
     28 H          -1.0938   -1.7595    1.5697 H       1  UNL1        0.0393
     29 H          -3.4445    2.7262    1.7655 H       1  UNL1        0.1910
     30 H          -2.1044   -1.7577   -0.6010 H       1  UNL1        0.0457
     31 H          -1.6072   -0.4174   -1.6661 H       1  UNL1        0.0457
     32 H          -3.3276   -0.8518   -1.5222 H       1  UNL1        0.0457
@<TRIPOS>BOND
     1     1     2    1
     2     2     3   ar
     3     3     4   ar
     4     4     5   ar
     5     5     6   ar
     6     6     7   ar
     7     7     8   ar
     8     8     9   ar
     9     9    10   ar
    10    10    11    1
    11    11    12    1
    12    12    13   ar
    13    13    14   ar
    14    14    15   ar
    15    15    16    2
    16    15    17   ar
    17    17    18    1
    18    10     2   ar
    19    17    12   ar
    20     9     4   ar
    21     1    19    1
    22     1    20    1
    23     1    21    1
    24     3    22    1
    25     5    23    1
    26     6    24    1
    27     7    25    1
    28     8    26    1
    29    11    27    1
    30    11    28    1
    31    14    29    1
    32    18    30    1
    33    18    31    1
    34    18    32    1
