@<TRIPOS>MOLECULE
*****
 30 32 0 0 0
SMALL
GASTEIGER

@<TRIPOS>ATOM
      1 C           2.5000   -1.3843   -1.3738 C.3     1  UNL1       -0.0384
      2 C           2.6133   -0.3631   -0.2795 C.ar    1  UNL1       -0.0333
      3 C           1.5161    0.2747    0.3059 C.ar    1  UNL1        0.0154
      4 C           0.1327    0.1081   -0.0331 C.2     1  UNL1       -0.0471
      5 C          -0.8863    0.3981    0.7936 C.2     1  UNL1       -0.0514
      6 C          -2.2995    0.2211    0.4413 C.ar    1  UNL1        0.0032
      7 C          -2.8024   -0.7990   -0.3982 C.ar    1  UNL1       -0.0524
      8 C          -4.1771   -0.9599   -0.6977 C.ar    1  UNL1       -0.0590
      9 C          -5.1786   -0.1243   -0.1777 C.ar    1  UNL1       -0.0335
     10 C          -4.7439    0.9068    0.6882 C.ar    1  UNL1        0.1005
     11 N          -5.5403    1.8008    1.2942 N.ar    1  UNL1       -0.1908
     12 S          -4.5467    2.7795    2.1936 S.2     1  UNL1        0.1165
     13 N          -3.0649    2.1155    1.8584 N.ar    1  UNL1       -0.1902
     14 C          -3.2777    1.0886    1.0145 C.ar    1  UNL1        0.1070
     15 S           2.0374    1.3838    1.5159 S.2     1  UNL1       -0.0967
     16 C           3.6760    1.0147    1.2729 C.ar    1  UNL1       -0.0206
     17 C           3.8729    0.0731    0.2860 C.ar    1  UNL1       -0.0400
     18 C           5.2212   -0.4194   -0.1304 C.3     1  UNL1       -0.0389
     19 H           2.2125   -0.8988   -2.3121 H       1  UNL1        0.0278
     20 H           3.4424   -1.9132   -1.5416 H       1  UNL1        0.0278
     21 H           1.7453   -2.1372   -1.1232 H       1  UNL1        0.0278
     22 H          -0.0748   -0.2886   -1.0228 H       1  UNL1        0.0629
     23 H          -0.7105    0.8043    1.7875 H       1  UNL1        0.0624
     24 H          -2.1085   -1.5165   -0.8371 H       1  UNL1        0.0624
     25 H          -4.4724   -1.7754   -1.3590 H       1  UNL1        0.0618
     26 H          -6.2269   -0.2604   -0.4142 H       1  UNL1        0.0640
     27 H           4.4290    1.5143    1.8671 H       1  UNL1        0.0696
     28 H           5.3210   -1.4869    0.0904 H       1  UNL1        0.0278
     29 H           5.3693   -0.2668   -1.2043 H       1  UNL1        0.0278
     30 H           6.0213    0.1105    0.3970 H       1  UNL1        0.0278
@<TRIPOS>BOND
     1     1     2    1
     2     2     3   ar
     3     3     4    1
     4     4     5    2
     5     5     6    1
     6     6     7   ar
     7     7     8   ar
     8     8     9   ar
     9     9    10   ar
    10    10    11   ar
    11    11    12   ar
    12    12    13   ar
    13    13    14   ar
    14     3    15   ar
    15    15    16   ar
    16    16    17   ar
    17    17    18    1
    18    17     2   ar
    19    14     6   ar
    20    14    10   ar
    21     1    19    1
    22     1    20    1
    23     1    21    1
    24     4    22    1
    25     5    23    1
    26     7    24    1
    27     8    25    1
    28     9    26    1
    29    16    27    1
    30    18    28    1
    31    18    29    1
    32    18    30    1
