@<TRIPOS>MOLECULE
*****
 28 30 0 0 0
SMALL
GASTEIGER

@<TRIPOS>ATOM
      1 C          -2.3430    0.3855    1.1340 C.3     1  UNL1       -0.0378
      2 C          -2.5312   -0.0950   -0.2723 C.ar    1  UNL1       -0.0250
      3 C          -1.4881   -0.4546   -1.1115 C.ar    1  UNL1        0.0654
      4 C          -0.1028   -0.4050   -0.7678 C.1     1  UNL1       -0.0535
      5 C           1.0574   -0.3373   -0.4668 C.1     1  UNL1       -0.0583
      6 C           2.4313   -0.2318   -0.1062 C.ar    1  UNL1        0.0534
      7 C           3.4291   -1.0278   -0.6966 C.ar    1  UNL1       -0.0441
      8 C           4.7961   -0.9198   -0.3505 C.ar    1  UNL1       -0.0584
      9 C           5.2761   -0.0105    0.6110 C.ar    1  UNL1       -0.0334
     10 C           4.3079    0.8093    1.2432 C.ar    1  UNL1        0.1011
     11 N           4.5567    1.7270    2.1911 N.ar    1  UNL1       -0.1907
     12 S           3.0912    2.3872    2.5962 S.2     1  UNL1        0.1165
     13 N           2.0761    1.5534    1.5831 N.ar    1  UNL1       -0.1895
     14 C           2.8447    0.7022    0.8805 C.ar    1  UNL1        0.1152
     15 S          -2.0274   -0.9637   -2.6463 S.2     1  UNL1       -0.0877
     16 C          -3.6586   -0.7155   -2.2211 C.ar    1  UNL1       -0.0200
     17 C          -3.8120   -0.2406   -0.9332 C.ar    1  UNL1       -0.0393
     18 C          -5.1363    0.0679   -0.3179 C.3     1  UNL1       -0.0389
     19 H          -1.7511    1.3064    1.1460 H       1  UNL1        0.0278
     20 H          -1.8223   -0.3734    1.7271 H       1  UNL1        0.0278
     21 H          -3.2987    0.5898    1.6262 H       1  UNL1        0.0278
     22 H           3.1410   -1.7618   -1.4506 H       1  UNL1        0.0630
     23 H           5.5105   -1.5728   -0.8512 H       1  UNL1        0.0619
     24 H           6.3269    0.0603    0.8651 H       1  UNL1        0.0640
     25 H          -4.4354   -0.9279   -2.9437 H       1  UNL1        0.0696
     26 H          -5.9498   -0.0224   -1.0475 H       1  UNL1        0.0278
     27 H          -5.3409   -0.6219    0.5089 H       1  UNL1        0.0278
     28 H          -5.1474    1.0927    0.0705 H       1  UNL1        0.0278
@<TRIPOS>BOND
     1     1     2    1
     2     2     3   ar
     3     3     4    1
     4     4     5    3
     5     5     6    1
     6     6     7   ar
     7     7     8   ar
     8     8     9   ar
     9     9    10   ar
    10    10    11   ar
    11    11    12   ar
    12    12    13   ar
    13    13    14   ar
    14     3    15   ar
    15    15    16   ar
    16    16    17   ar
    17    17    18    1
    18    17     2   ar
    19    14     6   ar
    20    14    10   ar
    21     1    19    1
    22     1    20    1
    23     1    21    1
    24     7    22    1
    25     8    23    1
    26     9    24    1
    27    16    25    1
    28    18    26    1
    29    18    27    1
    30    18    28    1
