@<TRIPOS>MOLECULE
*****
 24 24 0 0 0
SMALL
GASTEIGER

@<TRIPOS>ATOM
      1 C           2.0962   -1.6988   -0.6831 C.3     1  UNL1       -0.0421
      2 C           1.2530   -0.5281   -0.2490 C.2     1  UNL1       -0.0482
      3 C           1.5500    0.7697   -0.4963 C.2     1  UNL1        0.1123
      4 C           2.7069    1.1733   -1.2241 C.1     1  UNL1        0.1043
      5 N           3.6592    1.4427   -1.8318 N.1     1  UNL1       -0.1907
      6 C           0.6741    1.8581    0.0389 C.2     1  UNL1        0.2547
      7 O           0.9723    3.0446   -0.0378 O.2     1  UNL1       -0.2694
      8 N          -0.4955    1.4825    0.6460 N.am    1  UNL1       -0.3055
      9 C          -1.0946    0.1654    0.4661 C.3     1  UNL1        0.0330
     10 C          -1.8166    0.1113   -0.8934 C.3     1  UNL1       -0.0437
     11 C          -2.1203   -0.0816    1.5808 C.3     1  UNL1       -0.0437
     12 C           0.0131   -0.9093    0.5360 C.3     1  UNL1       -0.0094
     13 H           1.5235   -2.3429   -1.3587 H       1  UNL1        0.0275
     14 H           3.0117   -1.4080   -1.2049 H       1  UNL1        0.0275
     15 H           2.3921   -2.2903    0.1898 H       1  UNL1        0.0275
     16 H          -1.0866    2.2686    0.8935 H       1  UNL1        0.1496
     17 H          -1.1333    0.2875   -1.7311 H       1  UNL1        0.0250
     18 H          -2.5974    0.8789   -0.9513 H       1  UNL1        0.0250
     19 H          -2.2924   -0.8632   -1.0502 H       1  UNL1        0.0250
     20 H          -1.6524   -0.0171    2.5700 H       1  UNL1        0.0250
     21 H          -2.5786   -1.0723    1.4875 H       1  UNL1        0.0250
     22 H          -2.9217    0.6659    1.5543 H       1  UNL1        0.0250
     23 H           0.3238   -1.0727    1.5768 H       1  UNL1        0.0331
     24 H          -0.3867   -1.8645    0.1722 H       1  UNL1        0.0331
@<TRIPOS>BOND
     1     1     2    1
     2     2     3    2
     3     3     4    1
     4     4     5    3
     5     3     6    1
     6     6     7    2
     7     6     8   am
     8     8     9    1
     9     9    10    1
    10     9    11    1
    11     9    12    1
    12    12     2    1
    13     1    13    1
    14     1    14    1
    15     1    15    1
    16     8    16    1
    17    10    17    1
    18    10    18    1
    19    10    19    1
    20    11    20    1
    21    11    21    1
    22    11    22    1
    23    12    23    1
    24    12    24    1
