@<TRIPOS>MOLECULE
*****
 40 42 0 0 0
SMALL
GASTEIGER

@<TRIPOS>ATOM
      1 C           1.2596   -2.5704    1.4414 C.3     1  UNL1       -0.0259
      2 C          -0.1546   -2.2517    1.0496 C.2     1  UNL1        0.0191
      3 C          -0.7123   -1.0286    1.0070 C.2     1  UNL1        0.0563
      4 C           0.0274    0.1840    1.4260 C.2     1  UNL1        0.2462
      5 O          -0.2529    0.6846    2.5143 O.2     1  UNL1       -0.2702
      6 N           0.9905    0.6994    0.5739 N.am    1  UNL1       -0.2977
      7 C           1.2735    0.2252   -0.7850 C.3     1  UNL1        0.0150
      8 C           2.7645    0.3093   -1.0898 C.3     1  UNL1       -0.0371
      9 C           3.3071    1.7322   -0.9422 C.3     1  UNL1       -0.0502
     10 C           2.3998    2.6356   -0.1089 C.3     1  UNL1       -0.0371
     11 C           1.7296    1.8763    1.0301 C.3     1  UNL1        0.0150
     12 C          -2.1677   -0.8108    0.7227 C.3     1  UNL1        0.0875
     13 C          -2.4923    0.2015   -0.3576 C.ar    1  UNL1        0.0147
     14 C          -2.9355    1.5009   -0.1808 C.ar    1  UNL1       -0.0494
     15 C          -3.1288    2.1877   -1.4134 C.ar    1  UNL1       -0.0544
     16 C          -2.8260    1.3956   -2.4968 C.ar    1  UNL1       -0.0240
     17 S          -2.3065   -0.1629   -2.0283 S.2     1  UNL1       -0.0994
     18 N          -2.8375   -2.0552    0.3922 N.am    1  UNL1       -0.2876
     19 C          -2.2687   -3.2831    0.4261 C.2     1  UNL1        0.3044
     20 O          -2.9127   -4.2968    0.1786 O.2     1  UNL1       -0.2525
     21 N          -0.9456   -3.3353    0.7471 N.am    1  UNL1       -0.2729
     22 H           1.2715   -3.3116    2.2482 H       1  UNL1        0.0290
     23 H           1.8146   -1.6991    1.7992 H       1  UNL1        0.0290
     24 H           1.8030   -2.9856    0.5861 H       1  UNL1        0.0290
     25 H           0.7086    0.8620   -1.4755 H       1  UNL1        0.0464
     26 H           0.9260   -0.7979   -0.9360 H       1  UNL1        0.0464
     27 H           3.3064   -0.3494   -0.3990 H       1  UNL1        0.0280
     28 H           2.9675   -0.0615   -2.1007 H       1  UNL1        0.0280
     29 H           4.3044    1.6857   -0.4882 H       1  UNL1        0.0266
     30 H           3.4433    2.1835   -1.9324 H       1  UNL1        0.0266
     31 H           1.6246    3.0596   -0.7603 H       1  UNL1        0.0280
     32 H           2.9750    3.4813    0.2838 H       1  UNL1        0.0280
     33 H           1.0530    2.5468    1.5723 H       1  UNL1        0.0464
     34 H           2.4829    1.5238    1.7452 H       1  UNL1        0.0464
     35 H          -2.6500   -0.4758    1.6514 H       1  UNL1        0.0607
     36 H          -3.1068    1.9422    0.7951 H       1  UNL1        0.0626
     37 H          -3.4720    3.2115   -1.5001 H       1  UNL1        0.0623
     38 H          -2.8832    1.6570   -3.5446 H       1  UNL1        0.0693
     39 H          -3.8202   -2.0383    0.1612 H       1  UNL1        0.1512
     40 H          -0.5594   -4.2717    0.7768 H       1  UNL1        0.1561
@<TRIPOS>BOND
     1     1     2    1
     2     2     3    2
     3     3     4    1
     4     4     5    2
     5     4     6   am
     6     6     7    1
     7     7     8    1
     8     8     9    1
     9     9    10    1
    10    10    11    1
    11     3    12    1
    12    12    13    1
    13    13    14   ar
    14    14    15   ar
    15    15    16   ar
    16    16    17   ar
    17    12    18    1
    18    18    19   am
    19    19    20    2
    20    19    21   am
    21    21     2    1
    22    11     6    1
    23    17    13   ar
    24     1    22    1
    25     1    23    1
    26     1    24    1
    27     7    25    1
    28     7    26    1
    29     8    27    1
    30     8    28    1
    31     9    29    1
    32     9    30    1
    33    10    31    1
    34    10    32    1
    35    11    33    1
    36    11    34    1
    37    12    35    1
    38    14    36    1
    39    15    37    1
    40    16    38    1
    41    18    39    1
    42    21    40    1
