@<TRIPOS>MOLECULE
*****
 33 34 0 0 0
SMALL
GASTEIGER

@<TRIPOS>ATOM
      1 C          -4.0990   -1.1655   -0.5689 C.3     1  UNL1       -0.0358
      2 C          -3.4010    0.1332   -0.2633 C.2     1  UNL1        0.0012
      3 C          -2.0747    0.3633   -0.3939 C.2     1  UNL1       -0.0153
      4 C          -1.1447   -0.6387   -1.0222 C.3     1  UNL1       -0.0372
      5 C          -1.4918    1.6933    0.0332 C.2     1  UNL1        0.1088
      6 N          -0.2562    2.0491    0.2180 N.2     1  UNL1       -0.0522
      7 O           0.6719    1.0048    0.0754 O.2     1  UNL1       -0.2250
      8 S           2.2435    1.4585    0.2757 S.O2    1  UNL1        0.1703
      9 O           2.4581    1.8707    1.6514 O.2     1  UNL1       -0.1297
     10 O           2.6399    2.3080   -0.8335 O.2     1  UNL1       -0.1297
     11 C           3.0971   -0.0943    0.0708 C.ar    1  UNL1        0.1300
     12 C           3.6637   -0.4203   -1.1652 C.ar    1  UNL1       -0.0333
     13 C           4.3299   -1.6369   -1.3119 C.ar    1  UNL1       -0.0598
     14 C           4.4320   -2.5136   -0.2299 C.ar    1  UNL1       -0.0616
     15 C           3.8732   -2.1777    1.0047 C.ar    1  UNL1       -0.0598
     16 C           3.2051   -0.9636    1.1613 C.ar    1  UNL1       -0.0333
     17 C          -2.4722    2.7753    0.3034 C.2     1  UNL1       -0.0292
     18 C          -3.7800    2.5476    0.4012 C.2     1  UNL1       -0.0126
     19 C          -4.3286    1.2009    0.2120 C.2     1  UNL1        0.1822
     20 O          -5.5212    0.9970    0.4066 O.2     1  UNL1       -0.2876
     21 H          -4.8051   -1.4256    0.2278 H       1  UNL1        0.0279
     22 H          -3.4148   -2.0146   -0.6428 H       1  UNL1        0.0279
     23 H          -4.6531   -1.0853   -1.5097 H       1  UNL1        0.0279
     24 H          -1.6671   -1.3882   -1.6231 H       1  UNL1        0.0278
     25 H          -0.5684   -1.1674   -0.2567 H       1  UNL1        0.0278
     26 H          -0.4611   -0.1487   -1.7240 H       1  UNL1        0.0278
     27 H           3.5959    0.2613   -2.0105 H       1  UNL1        0.0638
     28 H           4.7764   -1.9008   -2.2680 H       1  UNL1        0.0618
     29 H           4.9568   -3.4592   -0.3472 H       1  UNL1        0.0618
     30 H           3.9659   -2.8606    1.8461 H       1  UNL1        0.0618
     31 H           2.7810   -0.7018    2.1285 H       1  UNL1        0.0638
     32 H          -2.0652    3.7668    0.4752 H       1  UNL1        0.0641
     33 H          -4.4862    3.3329    0.6414 H       1  UNL1        0.0656
@<TRIPOS>BOND
     1     1     2    1
     2     2     3    2
     3     3     4    1
     4     3     5    1
     5     5     6    2
     6     6     7    1
     7     7     8    1
     8     8     9    2
     9     8    10    2
    10     8    11    1
    11    11    12   ar
    12    12    13   ar
    13    13    14   ar
    14    14    15   ar
    15    15    16   ar
    16     5    17    1
    17    17    18    2
    18    18    19    1
    19    19    20    2
    20    19     2    1
    21    16    11   ar
    22     1    21    1
    23     1    22    1
    24     1    23    1
    25     4    24    1
    26     4    25    1
    27     4    26    1
    28    12    27    1
    29    13    28    1
    30    14    29    1
    31    15    30    1
    32    16    31    1
    33    17    32    1
    34    18    33    1
