@<TRIPOS>MOLECULE
*****
 39 43 0 0 0
SMALL
GASTEIGER

@<TRIPOS>ATOM
      1 C           0.0963    3.7569    0.1793 C.3     1  UNL1       -0.0387
      2 C          -0.2754    2.3379   -0.1877 C.ar    1  UNL1       -0.0349
      3 C          -1.3155    2.0275   -1.0069 C.ar    1  UNL1       -0.0230
      4 C          -2.1225    3.1226   -1.6853 C.3     1  UNL1       -0.0375
      5 C          -1.6310    0.6408   -1.2230 C.ar    1  UNL1        0.0523
      6 C          -2.6348    0.0322   -1.9501 C.ar    1  UNL1       -0.0284
      7 C          -2.4898   -1.3705   -1.8282 C.ar    1  UNL1        0.0008
      8 C          -1.3817   -1.6060   -1.0081 C.ar    1  UNL1        0.0557
      9 C          -0.9842   -2.9226   -0.7001 C.ar    1  UNL1       -0.0372
     10 C          -1.7164   -3.9906   -1.2288 C.ar    1  UNL1       -0.0598
     11 C          -2.8184   -3.7660   -2.0438 C.ar    1  UNL1       -0.0611
     12 C          -3.2143   -2.4619   -2.3498 C.ar    1  UNL1       -0.0526
     13 N          -0.8680   -0.3608   -0.6390 N.ar    1  UNL1       -0.2933
     14 C           0.2519   -0.0899    0.1939 C.ar    1  UNL1        0.1465
     15 N           0.9595   -1.1295    0.7153 N.ar    1  UNL1       -0.2286
     16 C           2.0202   -0.8614    1.4885 C.ar    1  UNL1        0.0733
     17 C           2.4220    0.4550    1.7736 C.ar    1  UNL1        0.0011
     18 C           3.5452    0.6898    2.5878 C.ar    1  UNL1       -0.0525
     19 C           4.2672   -0.3772    3.1189 C.ar    1  UNL1       -0.0611
     20 C           3.8714   -1.6798    2.8394 C.ar    1  UNL1       -0.0597
     21 C           2.7554   -1.9080    2.0293 C.ar    1  UNL1       -0.0357
     22 C           1.6714    1.5064    1.2231 C.ar    1  UNL1       -0.0416
     23 C           0.5530    1.2548    0.4166 C.ar    1  UNL1        0.0217
     24 H           1.0666    4.0235   -0.2531 H       1  UNL1        0.0278
     25 H           0.1455    3.8748    1.2678 H       1  UNL1        0.0278
     26 H          -0.6269    4.5036   -0.1569 H       1  UNL1        0.0278
     27 H          -2.6105    2.7536   -2.5934 H       1  UNL1        0.0278
     28 H          -2.9004    3.4938   -1.0106 H       1  UNL1        0.0278
     29 H          -1.4943    3.9563   -2.0140 H       1  UNL1        0.0278
     30 H          -3.4034    0.5393   -2.5179 H       1  UNL1        0.0645
     31 H          -0.1274   -3.1234   -0.0650 H       1  UNL1        0.0638
     32 H          -1.4155   -5.0092   -0.9955 H       1  UNL1        0.0618
     33 H          -3.3763   -4.6075   -2.4459 H       1  UNL1        0.0618
     34 H          -4.0769   -2.2919   -2.9876 H       1  UNL1        0.0624
     35 H           3.8623    1.7056    2.8123 H       1  UNL1        0.0624
     36 H           5.1342   -0.1921    3.7478 H       1  UNL1        0.0618
     37 H           4.4259   -2.5209    3.2473 H       1  UNL1        0.0618
     38 H           2.4512   -2.9294    1.8134 H       1  UNL1        0.0639
     39 H           1.9845    2.5244    1.4362 H       1  UNL1        0.0631
@<TRIPOS>BOND
     1     1     2    1
     2     2     3   ar
     3     3     4    1
     4     3     5   ar
     5     5     6   ar
     6     6     7   ar
     7     7     8   ar
     8     8     9   ar
     9     9    10   ar
    10    10    11   ar
    11    11    12   ar
    12     8    13   ar
    13    13    14   ar
    14    14    15   ar
    15    15    16   ar
    16    16    17   ar
    17    17    18   ar
    18    18    19   ar
    19    19    20   ar
    20    20    21   ar
    21    17    22   ar
    22    22    23   ar
    23    23     2   ar
    24    13     5   ar
    25    12     7   ar
    26    23    14   ar
    27    21    16   ar
    28     1    24    1
    29     1    25    1
    30     1    26    1
    31     4    27    1
    32     4    28    1
    33     4    29    1
    34     6    30    1
    35     9    31    1
    36    10    32    1
    37    11    33    1
    38    12    34    1
    39    18    35    1
    40    19    36    1
    41    20    37    1
    42    21    38    1
    43    22    39    1
