@<TRIPOS>MOLECULE
*****
 33 36 0 0 0
SMALL
GASTEIGER

@<TRIPOS>ATOM
      1 C          -3.9347   -1.7129    0.4814 C.3     1  UNL1       -0.0206
      2 C          -2.5864   -1.1193    0.3160 C.ar    1  UNL1        0.0600
      3 C          -2.2281    0.2142    0.1834 C.ar    1  UNL1        0.0436
      4 C          -3.1337    1.3883    0.1760 C.3     1  UNL1       -0.0221
      5 N          -0.8384    0.2100    0.0593 N.ar    1  UNL1       -0.2959
      6 C          -0.4576   -1.1249    0.1257 C.ar    1  UNL1        0.1463
      7 C           0.9389   -1.5288    0.0310 C.ar    1  UNL1        0.0256
      8 C           1.9212   -0.5332   -0.1320 C.ar    1  UNL1       -0.0053
      9 C           1.4981    0.8957   -0.2016 C.ar    1  UNL1        0.0067
     10 C           0.1229    1.2599   -0.1058 C.ar    1  UNL1        0.0560
     11 C          -0.2536    2.6095   -0.1737 C.ar    1  UNL1       -0.0372
     12 C           0.7043    3.6106   -0.3349 C.ar    1  UNL1       -0.0598
     13 C           2.0455    3.2772   -0.4299 C.ar    1  UNL1       -0.0611
     14 C           2.4348    1.9386   -0.3640 C.ar    1  UNL1       -0.0520
     15 C           3.2599   -0.9639   -0.2195 C.ar    1  UNL1       -0.0533
     16 C           3.6025   -2.3200   -0.1481 C.ar    1  UNL1       -0.0611
     17 C           2.6149   -3.2830    0.0130 C.ar    1  UNL1       -0.0611
     18 C           1.2846   -2.8881    0.1024 C.ar    1  UNL1       -0.0505
     19 N          -1.4898   -1.9276    0.2787 N.ar    1  UNL1       -0.2321
     20 H          -4.4116   -1.3338    1.3906 H       1  UNL1        0.0293
     21 H          -4.5696   -1.4670   -0.3754 H       1  UNL1        0.0293
     22 H          -3.8766   -2.8032    0.5585 H       1  UNL1        0.0293
     23 H          -4.1787    1.0807    0.2927 H       1  UNL1        0.0293
     24 H          -2.9135    2.0611    1.0101 H       1  UNL1        0.0293
     25 H          -3.0731    1.9267   -0.7743 H       1  UNL1        0.0293
     26 H          -1.2779    2.9423   -0.1070 H       1  UNL1        0.0638
     27 H           0.3984    4.6528   -0.3859 H       1  UNL1        0.0618
     28 H           2.7941    4.0555   -0.5556 H       1  UNL1        0.0618
     29 H           3.4988    1.7376   -0.4442 H       1  UNL1        0.0624
     30 H           4.0764   -0.2601   -0.3457 H       1  UNL1        0.0624
     31 H           4.6453   -2.6196   -0.2190 H       1  UNL1        0.0618
     32 H           2.8759   -4.3361    0.0689 H       1  UNL1        0.0618
     33 H           0.5065   -3.6389    0.2287 H       1  UNL1        0.0625
@<TRIPOS>BOND
     1     1     2    1
     2     2     3   ar
     3     3     4    1
     4     3     5   ar
     5     5     6   ar
     6     6     7   ar
     7     7     8   ar
     8     8     9   ar
     9     9    10   ar
    10    10    11   ar
    11    11    12   ar
    12    12    13   ar
    13    13    14   ar
    14     8    15   ar
    15    15    16   ar
    16    16    17   ar
    17    17    18   ar
    18     6    19   ar
    19    19     2   ar
    20    10     5   ar
    21    18     7   ar
    22    14     9   ar
    23     1    20    1
    24     1    21    1
    25     1    22    1
    26     4    23    1
    27     4    24    1
    28     4    25    1
    29    11    26    1
    30    12    27    1
    31    13    28    1
    32    14    29    1
    33    15    30    1
    34    16    31    1
    35    17    32    1
    36    18    33    1
