@<TRIPOS>MOLECULE
*****
 36 38 0 0 0
SMALL
GASTEIGER

@<TRIPOS>ATOM
      1 C          -1.8434   -1.3251    1.8230 C.3     1  UNL1       -0.0370
      2 C          -1.3670   -0.4149    0.7176 C.ar    1  UNL1       -0.0110
      3 C          -2.1803    0.3624   -0.0325 C.ar    1  UNL1        0.1322
      4 N          -3.5636    0.3291    0.0349 N.am    1  UNL1       -0.1961
      5 C          -4.3590    1.4393    0.0820 C.2     1  UNL1        0.2507
      6 C          -5.7516    0.9847   -0.0040 C.2     1  UNL1        0.0060
      7 C          -5.7417   -0.3449   -0.0796 C.2     1  UNL1        0.0060
      8 O          -4.0573    2.6066    0.2606 O.2     1  UNL1       -0.2698
      9 C          -4.3414   -0.7860   -0.0742 C.2     1  UNL1        0.2507
     10 O          -4.0244   -1.9574   -0.1906 O.2     1  UNL1       -0.2698
     11 C          -1.6172    1.2962   -1.0620 C.ar    1  UNL1        0.3597
     12 O          -0.2549    1.5314   -1.0278 O.2     1  UNL1       -0.4208
     13 C           0.5960    0.6761   -0.3123 C.ar    1  UNL1        0.1412
     14 C           1.9709    0.8667   -0.5150 C.ar    1  UNL1        0.0024
     15 C           2.9254    0.0452    0.1005 C.ar    1  UNL1        0.0327
     16 N           4.3005    0.2299   -0.0758 N.pl3   1  UNL1       -0.3359
     17 C           5.2093   -0.8671    0.2555 C.3     1  UNL1        0.0004
     18 C           4.7715    1.1472   -1.1129 C.3     1  UNL1        0.0004
     19 C           2.4084   -0.9554    0.9409 C.ar    1  UNL1       -0.0399
     20 C           1.0277   -1.1367    1.1451 C.ar    1  UNL1       -0.0490
     21 C           0.0920   -0.3114    0.5203 C.ar    1  UNL1        0.0224
     22 O          -2.3208    1.8062   -1.9303 O.2     1  UNL1       -0.2431
     23 H          -1.2711   -1.1567    2.7425 H       1  UNL1        0.0278
     24 H          -1.7392   -2.3750    1.5302 H       1  UNL1        0.0278
     25 H          -2.8860   -1.1513    2.1028 H       1  UNL1        0.0278
     26 H          -6.5938    1.6536    0.0086 H       1  UNL1        0.0671
     27 H          -6.5758   -1.0199   -0.1556 H       1  UNL1        0.0671
     28 H           2.2652    1.6731   -1.1790 H       1  UNL1        0.0673
     29 H           5.1840   -1.0924    1.3269 H       1  UNL1        0.0428
     30 H           6.2491   -0.6063    0.0279 H       1  UNL1        0.0428
     31 H           4.9634   -1.7686   -0.3167 H       1  UNL1        0.0428
     32 H           4.4014    2.1638   -0.9417 H       1  UNL1        0.0428
     33 H           5.8648    1.2220   -1.1085 H       1  UNL1        0.0428
     34 H           4.4660    0.8057   -2.1080 H       1  UNL1        0.0428
     35 H           3.0716   -1.6280    1.4776 H       1  UNL1        0.0636
     36 H           0.7211   -1.9421    1.8076 H       1  UNL1        0.0625
@<TRIPOS>BOND
     1     1     2    1
     2     2     3   ar
     3     3     4    1
     4     4     5   am
     5     5     6    1
     6     6     7    2
     7     5     8    2
     8     4     9   am
     9     9    10    2
    10     3    11   ar
    11    11    12   ar
    12    12    13   ar
    13    13    14   ar
    14    14    15   ar
    15    15    16    1
    16    16    17    1
    17    16    18    1
    18    15    19   ar
    19    19    20   ar
    20    20    21   ar
    21    11    22    2
    22    21     2   ar
    23     9     7    1
    24    21    13   ar
    25     1    23    1
    26     1    24    1
    27     1    25    1
    28     6    26    1
    29     7    27    1
    30    14    28    1
    31    17    29    1
    32    17    30    1
    33    17    31    1
    34    18    32    1
    35    18    33    1
    36    18    34    1
    37    19    35    1
    38    20    36    1
