@<TRIPOS>MOLECULE
*****
 39 42 0 0 0
SMALL
GASTEIGER

@<TRIPOS>ATOM
      1 C          -0.2522    3.9645   -0.9690 C.3     1  UNL1        0.0000
      2 C          -0.1807    2.5353   -0.6235 C.ar    1  UNL1        0.0000
      3 C           1.0083    1.9556   -0.6028 C.ar    1  UNL1        0.0000
      4 B           1.1635    0.4412   -0.2448 B       1  UNL1        0.0000
      5 C           2.5387   -0.2664   -0.1846 C.ar    1  UNL1        0.0000
      6 C           3.3083   -0.1917    0.9583 C.ar    1  UNL1        0.0000
      7 C           4.5420   -0.8281    1.0085 C.ar    1  UNL1        0.0000
      8 C           5.0086   -1.5354   -0.0718 C.ar    1  UNL1        0.0000
      9 C           4.2482   -1.6179   -1.2213 C.ar    1  UNL1        0.0000
     10 C           3.0214   -0.9765   -1.2513 C.ar    1  UNL1        0.0000
     11 N          -0.1215   -0.3144    0.0741 N.ar    1  UNL1        0.0000
     12 C          -1.3437    0.4108    0.0208 C.ar    1  UNL1        0.0000
     13 C          -2.5152   -0.2971    0.3162 C.ar    1  UNL1        0.0000
     14 C          -2.5223   -1.7098    0.6657 C.ar    1  UNL1        0.0000
     15 C          -3.8620   -2.3402    0.9592 C.3     1  UNL1        0.0000
     16 C          -1.4397   -2.4698    0.7419 C.ar    1  UNL1        0.0000
     17 B          -0.0656   -1.8085    0.4372 B       1  UNL1        0.0000
     18 O           1.2069   -2.4107    0.7684 O.3     1  UNL1        0.0000
     19 C          -3.6946    0.4068    0.2636 C.ar    1  UNL1        0.0000
     20 C          -3.7729    1.7385   -0.0572 C.ar    1  UNL1        0.0000
     21 C          -2.5889    2.3900   -0.3398 C.ar    1  UNL1        0.0000
     22 C          -1.3655    1.7483   -0.3072 C.ar    1  UNL1        0.0000
     23 H           0.7485    4.4349   -0.8853 H       1  UNL1        0.0000
     24 H          -0.9187    4.5513   -0.3057 H       1  UNL1        0.0000
     25 H          -0.5352    4.0772   -2.0534 H       1  UNL1        0.0000
     26 H           1.9106    2.4932   -0.8284 H       1  UNL1        0.0000
     27 H           2.9716    0.3530    1.8186 H       1  UNL1        0.0000
     28 H           5.1123   -0.7409    1.9303 H       1  UNL1        0.0000
     29 H           5.9752   -2.0139    0.0150 H       1  UNL1        0.0000
     30 H           4.6070   -2.1746   -2.0823 H       1  UNL1        0.0000
     31 H           2.4399   -1.0510   -2.1572 H       1  UNL1        0.0000
     32 H          -4.4328   -2.5023    0.0274 H       1  UNL1        0.0000
     33 H          -4.4095   -1.7335    1.7089 H       1  UNL1        0.0000
     34 H          -3.7016   -3.3405    1.4067 H       1  UNL1        0.0000
     35 H          -1.4679   -3.5224    1.0047 H       1  UNL1        0.0000
     36 H           1.2989   -3.2700    0.2686 H       1  UNL1        0.0000
     37 H          -4.6119   -0.1138    0.4865 H       1  UNL1        0.0000
     38 H          -4.7044    2.2867   -0.0967 H       1  UNL1        0.0000
     39 H          -2.6032    3.4421   -0.5983 H       1  UNL1        0.0000
@<TRIPOS>BOND
     1     1     2    1
     2     2     3   ar
     3     3     4   ar
     4     4     5    1
     5     5     6   ar
     6     6     7   ar
     7     7     8   ar
     8     8     9   ar
     9     9    10   ar
    10     4    11   ar
    11    11    12   ar
    12    12    13   ar
    13    13    14   ar
    14    14    15    1
    15    14    16   ar
    16    16    17   ar
    17    17    18    1
    18    13    19   ar
    19    19    20   ar
    20    20    21   ar
    21    21    22   ar
    22    22     2   ar
    23    10     5   ar
    24    17    11   ar
    25    22    12   ar
    26     1    23    1
    27     1    24    1
    28     1    25    1
    29     3    26    1
    30     6    27    1
    31     7    28    1
    32     8    29    1
    33     9    30    1
    34    10    31    1
    35    15    32    1
    36    15    33    1
    37    15    34    1
    38    16    35    1
    39    18    36    1
    40    19    37    1
    41    20    38    1
    42    21    39    1
