@<TRIPOS>MOLECULE
*****
 51 58 0 0 0
SMALL
GASTEIGER

@<TRIPOS>ATOM
      1 SI          5.5460    1.6252   -2.6932 Si      1  UNL1        0.0000
      2 C           6.4946    0.1139   -2.1226 C.2     1  UNL1        0.0000
      3 C           5.7525   -0.6149   -1.2684 C.ar    1  UNL1        0.0000
      4 C           6.1745   -1.8472   -0.6340 C.ar    1  UNL1        0.0000
      5 C           5.3214   -2.4711    0.1998 C.ar    1  UNL1        0.0000
      6 C           3.9869   -1.9451    0.4831 C.ar    1  UNL1        0.0000
      7 C           3.5204   -0.7961   -0.0610 C.ar    1  UNL1        0.0000
      8 C           2.1614   -0.3785    0.2863 C.ar    1  UNL1        0.0000
      9 C           1.0017   -0.8656   -0.3608 C.ar    1  UNL1        0.0000
     10 C          -0.2831   -0.4018    0.0242 C.ar    1  UNL1        0.0000
     11 N          -1.5390   -0.7158   -0.4438 N.ar    1  UNL1        0.0000
     12 C          -2.5281   -0.0175    0.2266 C.ar    1  UNL1        0.0000
     13 C          -1.8880    0.7940    1.1789 C.ar    1  UNL1        0.0000
     14 C          -2.6739    1.6185    2.0066 C.ar    1  UNL1        0.0000
     15 C          -4.0704    1.6245    1.8776 C.ar    1  UNL1        0.0000
     16 C          -4.7264    0.8268    0.9390 C.ar    1  UNL1        0.0000
     17 C          -6.1660    0.8731    0.8497 C.ar    1  UNL1        0.0000
     18 C          -6.9520    0.1202   -0.0527 C.ar    1  UNL1        0.0000
     19 C          -6.1492   -0.6784   -0.8508 C.ar    1  UNL1        0.0000
     20 C          -6.6081   -1.5255   -1.8248 C.ar    1  UNL1        0.0000
     21 N          -5.5020   -2.1272   -2.3775 N.ar    1  UNL1        0.0000
     22 C          -4.3501   -1.6702   -1.7639 C.ar    1  UNL1        0.0000
     23 C          -4.7204   -0.7598   -0.8011 C.ar    1  UNL1        0.0000
     24 C          -3.9274   -0.0172    0.0908 C.ar    1  UNL1        0.0000
     25 C          -0.5196    0.5288    1.0204 C.ar    1  UNL1        0.0000
     26 C           0.6282    1.0446    1.6928 C.ar    1  UNL1        0.0000
     27 C           0.7450    1.9568    2.6981 C.ar    1  UNL1        0.0000
     28 N           2.1021    2.0560    2.9335 N.ar    1  UNL1        0.0000
     29 C           2.8009    1.2164    2.0844 C.ar    1  UNL1        0.0000
     30 C           1.8871    0.5626    1.2855 C.ar    1  UNL1        0.0000
     31 C           4.4010   -0.0737   -0.9836 C.ar    1  UNL1        0.0000
     32 C           4.1143    1.0749   -1.6292 C.2     1  UNL1        0.0000
     33 H           6.1648    2.8863   -2.2167 H       1  UNL1        0.0000
     34 H           5.2359    1.5762   -4.1429 H       1  UNL1        0.0000
     35 H           7.4953   -0.0915   -2.4662 H       1  UNL1        0.0000
     36 H           7.1617   -2.2452   -0.8369 H       1  UNL1        0.0000
     37 H           5.6068   -3.3954    0.6923 H       1  UNL1        0.0000
     38 H           3.3768   -2.5267    1.1699 H       1  UNL1        0.0000
     39 H           1.1005   -1.5955   -1.1606 H       1  UNL1        0.0000
     40 H          -1.7088   -1.3745   -1.1844 H       1  UNL1        0.0000
     41 H          -2.2085    2.2557    2.7510 H       1  UNL1        0.0000
     42 H          -4.6407    2.2760    2.5370 H       1  UNL1        0.0000
     43 H          -6.7029    1.5390    1.5281 H       1  UNL1        0.0000
     44 H          -8.0299    0.1776   -0.0945 H       1  UNL1        0.0000
     45 H          -7.6030   -1.7595   -2.1784 H       1  UNL1        0.0000
     46 H          -5.5272   -2.8072   -3.1261 H       1  UNL1        0.0000
     47 H          -3.4013   -2.0573   -2.0964 H       1  UNL1        0.0000
     48 H           0.0379    2.5406    3.2675 H       1  UNL1        0.0000
     49 H           2.5274    2.6565    3.6274 H       1  UNL1        0.0000
     50 H           3.8808    1.1693    2.1327 H       1  UNL1        0.0000
     51 H           3.2002    1.6448   -1.5711 H       1  UNL1        0.0000
@<TRIPOS>BOND
     1     1     2    1
     2     2     3    2
     3     3     4   ar
     4     4     5   ar
     5     5     6   ar
     6     6     7   ar
     7     7     8    1
     8     8     9   ar
     9     9    10   ar
    10    10    11   ar
    11    11    12   ar
    12    12    13   ar
    13    13    14   ar
    14    14    15   ar
    15    15    16   ar
    16    16    17   ar
    17    17    18   ar
    18    18    19   ar
    19    19    20   ar
    20    20    21   ar
    21    21    22   ar
    22    22    23   ar
    23    23    24   ar
    24    13    25   ar
    25    25    26   ar
    26    26    27   ar
    27    27    28   ar
    28    28    29   ar
    29    29    30   ar
    30     7    31   ar
    31    31    32    2
    32    32     1    1
    33    31     3   ar
    34    30     8   ar
    35    25    10   ar
    36    30    26   ar
    37    24    12   ar
    38    24    16   ar
    39    23    19   ar
    40     1    33    1
    41     1    34    1
    42     2    35    1
    43     4    36    1
    44     5    37    1
    45     6    38    1
    46     9    39    1
    47    11    40    1
    48    14    41    1
    49    15    42    1
    50    17    43    1
    51    18    44    1
    52    20    45    1
    53    21    46    1
    54    22    47    1
    55    27    48    1
    56    28    49    1
    57    29    50    1
    58    32    51    1
