@<TRIPOS>MOLECULE
*****
 31 33 0 0 0
SMALL
GASTEIGER

@<TRIPOS>ATOM
      1 C          -4.0879   -2.0247   -0.3049 C.3     1  UNL1       -0.0063
      2 C          -3.0978   -0.9052   -0.3367 C.2     1  UNL1        0.1027
      3 C          -1.7831   -1.0701   -0.1016 C.2     1  UNL1       -0.0158
      4 C          -0.8735    0.0799   -0.1512 C.2     1  UNL1       -0.0042
      5 C           0.4542   -0.0415    0.0786 C.2     1  UNL1        0.0768
      6 C           1.4742    1.0615    0.0544 C.2     1  UNL1        0.1981
      7 O           1.3363    2.2468   -0.1664 O.2     1  UNL1       -0.2865
      8 C           2.7619    0.4358    0.3625 C.ar    1  UNL1        0.0332
      9 C           4.0025    1.0429    0.4563 C.ar    1  UNL1       -0.0502
     10 C           5.0992    0.2329    0.7653 C.ar    1  UNL1       -0.0610
     11 C           4.9369   -1.1504    0.9719 C.ar    1  UNL1       -0.0610
     12 C           3.6755   -1.7449    0.8727 C.ar    1  UNL1       -0.0502
     13 C           2.6021   -0.9262    0.5660 C.ar    1  UNL1        0.0332
     14 C           1.1966   -1.3057    0.4080 C.2     1  UNL1        0.1981
     15 O           0.7865   -2.4408    0.5338 O.2     1  UNL1       -0.2865
     16 C          -1.4969    1.3700   -0.4661 C.2     1  UNL1       -0.0158
     17 C          -2.8220    1.4464   -0.6880 C.2     1  UNL1        0.1027
     18 C          -3.5313    2.7213   -1.0139 C.3     1  UNL1       -0.0063
     19 O          -3.6538    0.3340   -0.6324 O.2     1  UNL1       -0.4651
     20 H          -4.5807   -2.1208   -1.2777 H       1  UNL1        0.0308
     21 H          -4.8537   -1.8302    0.4528 H       1  UNL1        0.0308
     22 H          -3.6174   -2.9848   -0.0695 H       1  UNL1        0.0308
     23 H          -1.4115   -2.0624    0.1236 H       1  UNL1        0.0657
     24 H           4.1170    2.1108    0.2951 H       1  UNL1        0.0625
     25 H           6.0907    0.6752    0.8474 H       1  UNL1        0.0618
     26 H           5.8048   -1.7627    1.2116 H       1  UNL1        0.0618
     27 H           3.5398   -2.8108    1.0302 H       1  UNL1        0.0625
     28 H          -0.9029    2.2740   -0.5242 H       1  UNL1        0.0657
     29 H          -2.8480    3.5759   -1.0495 H       1  UNL1        0.0308
     30 H          -4.2952    2.9322   -0.2586 H       1  UNL1        0.0308
     31 H          -4.0222    2.6417   -1.9891 H       1  UNL1        0.0308
@<TRIPOS>BOND
     1     1     2    1
     2     2     3    2
     3     3     4    1
     4     4     5    2
     5     5     6    1
     6     6     7    2
     7     6     8    1
     8     8     9   ar
     9     9    10   ar
    10    10    11   ar
    11    11    12   ar
    12    12    13   ar
    13    13    14    1
    14    14    15    2
    15     4    16    1
    16    16    17    2
    17    17    18    1
    18    17    19    1
    19    19     2    1
    20    14     5    1
    21    13     8   ar
    22     1    20    1
    23     1    21    1
    24     1    22    1
    25     3    23    1
    26     9    24    1
    27    10    25    1
    28    11    26    1
    29    12    27    1
    30    16    28    1
    31    18    29    1
    32    18    30    1
    33    18    31    1
