@<TRIPOS>MOLECULE
*****
 22 22 0 0 0
SMALL
GASTEIGER

@<TRIPOS>ATOM
      1 C           4.1053    0.3507    0.0881 C.3     1  UNL1       -0.0062
      2 C           2.6211    0.4126    0.1006 C.2     1  UNL1        0.1069
      3 C           1.7594   -0.5781   -0.1020 C.2     1  UNL1       -0.0086
      4 C           0.4546   -0.0003    0.0171 C.2     1  UNL1        0.0761
      5 C          -0.6712   -0.7167   -0.1248 C.2     1  UNL1        0.0057
      6 N          -2.0330   -0.4458   -0.0629 N.pl3   1  UNL1       -0.3411
      7 C          -3.0249   -1.4840   -0.3543 C.3     1  UNL1       -0.0001
      8 C          -2.5877    0.9020    0.0626 C.3     1  UNL1       -0.0001
      9 C           0.6695    1.4499    0.3132 C.2     1  UNL1        0.3454
     10 O          -0.1573    2.3264    0.4889 O.2     1  UNL1       -0.2445
     11 O           2.0374    1.6632    0.3567 O.3     1  UNL1       -0.4270
     12 H           4.5068    1.0167   -0.6818 H       1  UNL1        0.0308
     13 H           4.5066    0.6610    1.0578 H       1  UNL1        0.0308
     14 H           4.4641   -0.6626   -0.1190 H       1  UNL1        0.0308
     15 H           1.9891   -1.6096   -0.3124 H       1  UNL1        0.0659
     16 H          -0.5293   -1.7780   -0.3358 H       1  UNL1        0.0788
     17 H          -2.6399   -2.4849   -0.1299 H       1  UNL1        0.0427
     18 H          -3.3043   -1.4491   -1.4123 H       1  UNL1        0.0427
     19 H          -3.9265   -1.3455    0.2525 H       1  UNL1        0.0427
     20 H          -3.6811    0.8985   -0.0142 H       1  UNL1        0.0427
     21 H          -2.2171    1.5487   -0.7388 H       1  UNL1        0.0427
     22 H          -2.3416    1.3247    1.0410 H       1  UNL1        0.0427
@<TRIPOS>BOND
     1     1     2    1
     2     2     3    2
     3     3     4    1
     4     4     5    2
     5     5     6    1
     6     6     7    1
     7     6     8    1
     8     4     9    1
     9     9    10    2
    10     9    11    1
    11    11     2    1
    12     1    12    1
    13     1    13    1
    14     1    14    1
    15     3    15    1
    16     5    16    1
    17     7    17    1
    18     7    18    1
    19     7    19    1
    20     8    20    1
    21     8    21    1
    22     8    22    1
