@<TRIPOS>MOLECULE
*****
 50 55 0 0 0
SMALL
GASTEIGER

@<TRIPOS>ATOM
      1 C          -9.3387   -0.9016    2.5586 C.3     1  UNL1       -0.0392
      2 C          -8.1228   -1.1059    1.7319 C.2     1  UNL1       -0.0428
      3 C          -7.0187   -0.3512    1.7103 C.2     1  UNL1       -0.0435
      4 C          -5.9963   -0.8428    0.7774 C.2     1  UNL1        0.0262
      5 C          -4.7210   -0.2233    0.5415 C.ar    1  UNL1        0.0268
      6 C          -4.2761    0.9996    1.0112 C.ar    1  UNL1       -0.0429
      7 C          -2.9420    1.3312    0.5944 C.ar    1  UNL1       -0.0346
      8 C          -2.2492    2.6020    0.9657 C.3     1  UNL1       -0.0386
      9 C          -2.4067    0.3187   -0.1841 C.ar    1  UNL1        0.0297
     10 C          -1.0979    0.2645   -0.7843 C.ar    1  UNL1        0.0297
     11 S           0.2856    0.0374    0.1941 S.2     1  UNL1       -0.0869
     12 C           1.3526    0.0786   -1.1457 C.ar    1  UNL1        0.0268
     13 C           2.7863   -0.0794   -1.0193 C.ar    1  UNL1        0.0268
     14 C           3.6547   -0.5190   -1.9977 C.ar    1  UNL1       -0.0429
     15 C           5.0288   -0.5604   -1.5773 C.ar    1  UNL1       -0.0331
     16 C           6.1347   -1.0139   -2.4792 C.3     1  UNL1       -0.0385
     17 C           5.1713   -0.1353   -0.2586 C.ar    1  UNL1        0.0479
     18 C           6.4064   -0.0391    0.5069 C.ar    1  UNL1        0.1183
     19 N           7.5797   -0.3043   -0.0451 N.ar    1  UNL1       -0.2297
     20 C           8.5549   -0.1393    0.8874 C.ar    1  UNL1        0.1358
     21 S          10.2797   -0.3199    0.8317 S.2     1  UNL1       -0.0553
     22 C          10.3083    0.1404    2.4996 C.ar    1  UNL1        0.0680
     23 N           9.1532    0.4108    3.0740 N.ar    1  UNL1       -0.2386
     24 C           8.1740    0.2445    2.1399 C.ar    1  UNL1        0.1357
     25 S           6.4552    0.4212    2.1892 S.2     1  UNL1       -0.0465
     26 S           3.6463    0.2947    0.4081 S.2     1  UNL1       -0.0854
     27 C           0.6436    0.2595   -2.3198 C.ar    1  UNL1       -0.0429
     28 C          -0.7750    0.3768   -2.1268 C.ar    1  UNL1       -0.0346
     29 C          -1.7481    0.5894   -3.2409 C.3     1  UNL1       -0.0386
     30 S          -3.5047   -0.9720   -0.4014 S.2     1  UNL1       -0.0869
     31 S          -6.5310   -2.2824   -0.0339 S.3     1  UNL1       -0.0959
     32 C          -8.0357   -2.2387    0.8139 C.2     1  UNL1       -0.0208
     33 H          -9.5146   -1.7698    3.2015 H       1  UNL1        0.0278
     34 H          -9.2448   -0.0207    3.2020 H       1  UNL1        0.0278
     35 H         -10.2166   -0.7603    1.9205 H       1  UNL1        0.0278
     36 H          -6.8707    0.5300    2.3153 H       1  UNL1        0.0632
     37 H          -4.8787    1.6532    1.6299 H       1  UNL1        0.0632
     38 H          -1.7447    3.0421    0.0994 H       1  UNL1        0.0278
     39 H          -1.5073    2.4164    1.7486 H       1  UNL1        0.0278
     40 H          -2.9622    3.3419    1.3441 H       1  UNL1        0.0278
     41 H           3.3278   -0.8165   -2.9875 H       1  UNL1        0.0632
     42 H           6.8516   -0.2042   -2.6482 H       1  UNL1        0.0278
     43 H           5.7458   -1.3198   -3.4562 H       1  UNL1        0.0278
     44 H           6.6572   -1.8742   -2.0489 H       1  UNL1        0.0278
     45 H          11.2466    0.1997    3.0375 H       1  UNL1        0.0908
     46 H           1.1167    0.3186   -3.2930 H       1  UNL1        0.0632
     47 H          -1.2361    0.9131   -4.1531 H       1  UNL1        0.0278
     48 H          -2.4800    1.3610   -2.9809 H       1  UNL1        0.0278
     49 H          -2.2806   -0.3405   -3.4639 H       1  UNL1        0.0278
     50 H          -8.8609   -2.9547    0.7109 H       1  UNL1        0.0696
@<TRIPOS>BOND
     1     1     2    1
     2     2     3    2
     3     3     4    1
     4     4     5    1
     5     5     6   ar
     6     6     7   ar
     7     7     8    1
     8     7     9   ar
     9     9    10    1
    10    10    11   ar
    11    11    12   ar
    12    12    13    1
    13    13    14   ar
    14    14    15   ar
    15    15    16    1
    16    15    17   ar
    17    17    18    1
    18    18    19   ar
    19    19    20   ar
    20    20    21   ar
    21    21    22   ar
    22    22    23   ar
    23    23    24   ar
    24    24    25   ar
    25    17    26   ar
    26    12    27   ar
    27    27    28   ar
    28    28    29    1
    29     9    30   ar
    30     4    31    2
    31    31    32    2
    32    32     2    1
    33    30     5   ar
    34    28    10   ar
    35    26    13   ar
    36    25    18   ar
    37    24    20   ar
    38     1    33    1
    39     1    34    1
    40     1    35    1
    41     3    36    1
    42     6    37    1
    43     8    38    1
    44     8    39    1
    45     8    40    1
    46    14    41    1
    47    16    42    1
    48    16    43    1
    49    16    44    1
    50    22    45    1
    51    27    46    1
    52    29    47    1
    53    29    48    1
    54    29    49    1
    55    32    50    1
