@<TRIPOS>MOLECULE
*****
 30 32 0 0 0
SMALL
GASTEIGER

@<TRIPOS>ATOM
      1 C          -2.9635   -3.7269    1.8210 C.3     1  UNL1       -0.0376
      2 C          -2.0738   -2.6337    1.3132 C.ar    1  UNL1       -0.0223
      3 C          -2.6252   -1.5351    0.6132 C.ar    1  UNL1       -0.0561
      4 C          -1.8595   -0.4624    0.0966 C.ar    1  UNL1       -0.0516
      5 C          -0.4559   -0.3759    0.2218 C.ar    1  UNL1        0.0115
      6 C           0.3263    0.7396   -0.3162 C.ar    1  UNL1        0.0016
      7 C           1.1539    0.6123   -1.4501 C.ar    1  UNL1        0.0598
      8 C           1.2519   -0.6262   -2.1728 C.1     1  UNL1        0.0998
      9 N           1.3235   -1.6120   -2.7822 N.1     1  UNL1       -0.1909
     10 C           1.8862    1.7153   -1.9212 C.ar    1  UNL1       -0.0408
     11 C           0.2497    1.9958    0.3118 C.ar    1  UNL1       -0.0525
     12 C           0.9806    3.0889   -0.1623 C.ar    1  UNL1       -0.0582
     13 C           1.8156    2.9543   -1.2738 C.ar    1  UNL1       -0.0492
     14 C           2.5781    4.1336   -1.8017 C.3     1  UNL1       -0.0397
     15 C           0.1646   -1.4502    0.9239 C.ar    1  UNL1        0.1078
     16 N           1.4780   -1.5835    1.1827 N.ar    1  UNL1       -0.1902
     17 S           1.6613   -3.0120    2.0022 S.2     1  UNL1        0.1165
     18 N           0.0861   -3.5172    2.1047 N.ar    1  UNL1       -0.1905
     19 C          -0.6600   -2.5948    1.4743 C.ar    1  UNL1        0.1034
     20 H          -3.6979   -3.3179    2.5221 H       1  UNL1        0.0278
     21 H          -3.4921   -4.1985    0.9864 H       1  UNL1        0.0278
     22 H          -2.3960   -4.5033    2.3424 H       1  UNL1        0.0278
     23 H          -3.7054   -1.5082    0.4550 H       1  UNL1        0.0621
     24 H          -2.3894    0.3317   -0.4325 H       1  UNL1        0.0624
     25 H           2.5174    1.6051   -2.8028 H       1  UNL1        0.0633
     26 H          -0.3795    2.1290    1.1909 H       1  UNL1        0.0624
     27 H           0.8964    4.0457    0.3496 H       1  UNL1        0.0620
     28 H           1.9764    4.6658   -2.5448 H       1  UNL1        0.0278
     29 H           3.5165    3.8147   -2.2674 H       1  UNL1        0.0278
     30 H           2.8361    4.8259   -0.9934 H       1  UNL1        0.0278
@<TRIPOS>BOND
     1     1     2    1
     2     2     3   ar
     3     3     4   ar
     4     4     5   ar
     5     5     6    1
     6     6     7   ar
     7     7     8    1
     8     8     9    3
     9     7    10   ar
    10     6    11   ar
    11    11    12   ar
    12    12    13   ar
    13    13    14    1
    14     5    15   ar
    15    15    16   ar
    16    16    17   ar
    17    17    18   ar
    18    18    19   ar
    19    19     2   ar
    20    13    10   ar
    21    19    15   ar
    22     1    20    1
    23     1    21    1
    24     1    22    1
    25     3    23    1
    26     4    24    1
    27    10    25    1
    28    11    26    1
    29    12    27    1
    30    14    28    1
    31    14    29    1
    32    14    30    1
