@<TRIPOS>MOLECULE
*****
 29 31 0 0 0
SMALL
GASTEIGER

@<TRIPOS>ATOM
      1 C           5.0555   -0.2125   -0.7146 C.3     1  UNL1       -0.0376
      2 C           3.5782   -0.1347   -0.4786 C.ar    1  UNL1       -0.0223
      3 C           2.6748   -0.5141   -1.4955 C.ar    1  UNL1       -0.0561
      4 C           1.2665   -0.4735   -1.3550 C.ar    1  UNL1       -0.0515
      5 C           0.5985   -0.0475   -0.1825 C.ar    1  UNL1        0.0131
      6 C          -0.8631   -0.0151   -0.0617 C.ar    1  UNL1        0.0222
      7 C          -1.6487   -1.1348   -0.3808 C.ar    1  UNL1        0.1316
      8 F          -1.0651   -2.2696   -0.7978 F       1  UNL1       -0.2048
      9 C          -3.0419   -1.1173   -0.2793 C.ar    1  UNL1       -0.0202
     10 C          -1.5373    1.1424    0.3595 C.ar    1  UNL1       -0.0157
     11 C          -2.9287    1.1608    0.4612 C.ar    1  UNL1        0.1270
     12 F          -3.5314    2.2913    0.8561 F       1  UNL1       -0.2052
     13 C          -3.6979    0.0365    0.1566 C.ar    1  UNL1       -0.0125
     14 C          -5.1914    0.0918    0.2483 C.3     1  UNL1       -0.0369
     15 C           1.4591    0.3441    0.8872 C.ar    1  UNL1        0.1079
     16 N           1.0834    0.7737    2.1064 N.ar    1  UNL1       -0.1902
     17 S           2.4669    1.0865    2.9599 S.2     1  UNL1        0.1165
     18 N           3.6193    0.7016    1.8351 N.ar    1  UNL1       -0.1905
     19 C           2.9680    0.2982    0.7313 C.ar    1  UNL1        0.1034
     20 H           5.6244    0.1337    0.1533 H       1  UNL1        0.0278
     21 H           5.3484   -1.2470   -0.9199 H       1  UNL1        0.0278
     22 H           5.3328    0.4125   -1.5695 H       1  UNL1        0.0278
     23 H           3.0777   -0.8620   -2.4490 H       1  UNL1        0.0621
     24 H           0.6683   -0.7921   -2.2114 H       1  UNL1        0.0624
     25 H          -3.5973   -2.0133   -0.5418 H       1  UNL1        0.0650
     26 H          -0.9905    2.0473    0.6130 H       1  UNL1        0.0653
     27 H          -5.6221   -0.9138    0.2986 H       1  UNL1        0.0278
     28 H          -5.5039    0.6245    1.1526 H       1  UNL1        0.0278
     29 H          -5.6024    0.6024   -0.6280 H       1  UNL1        0.0278
@<TRIPOS>BOND
     1     1     2    1
     2     2     3   ar
     3     3     4   ar
     4     4     5   ar
     5     5     6    1
     6     6     7   ar
     7     7     8    1
     8     7     9   ar
     9     6    10   ar
    10    10    11   ar
    11    11    12    1
    12    11    13   ar
    13    13    14    1
    14     5    15   ar
    15    15    16   ar
    16    16    17   ar
    17    17    18   ar
    18    18    19   ar
    19    19     2   ar
    20    13     9   ar
    21    19    15   ar
    22     1    20    1
    23     1    21    1
    24     1    22    1
    25     3    23    1
    26     4    24    1
    27     9    25    1
    28    10    26    1
    29    14    27    1
    30    14    28    1
    31    14    29    1
