@<TRIPOS>MOLECULE
*****
 35 37 0 0 0
SMALL
GASTEIGER

@<TRIPOS>ATOM
      1 C           5.1440   -0.8123   -0.6256 C.3     1  UNL1       -0.0376
      2 C           3.7040   -0.4210   -0.4912 C.ar    1  UNL1       -0.0223
      3 C           2.7155   -1.0741   -1.2630 C.ar    1  UNL1       -0.0561
      4 C           1.3358   -0.7673   -1.1988 C.ar    1  UNL1       -0.0516
      5 C           0.7944    0.2238   -0.3513 C.ar    1  UNL1        0.0106
      6 C          -0.6352    0.5286   -0.3075 C.ar    1  UNL1       -0.0126
      7 C          -1.1559    1.4480   -1.2363 C.ar    1  UNL1       -0.0535
      8 C          -2.5151    1.7667   -1.2606 C.ar    1  UNL1       -0.0582
      9 C          -1.5177   -0.0705    0.6179 C.ar    1  UNL1       -0.0396
     10 C          -1.0586   -1.0766    1.6517 C.3     1  UNL1       -0.0299
     11 C          -1.2044   -2.5085    1.1580 C.3     1  UNL1       -0.0612
     12 C          -2.8879    0.2568    0.5760 C.ar    1  UNL1       -0.0551
     13 C          -3.3951    1.1622   -0.3631 C.ar    1  UNL1       -0.0502
     14 C          -4.8503    1.5245   -0.3609 C.3     1  UNL1       -0.0397
     15 C           1.7376    0.9289    0.4512 C.ar    1  UNL1        0.1078
     16 N           1.4747    1.9166    1.3260 N.ar    1  UNL1       -0.1902
     17 S           2.9220    2.3755    1.9852 S.2     1  UNL1        0.1165
     18 N           3.9616    1.3510    1.2005 N.ar    1  UNL1       -0.1905
     19 C           3.2148    0.5957    0.3773 C.ar    1  UNL1        0.1034
     20 H           5.7873   -0.2297    0.0404 H       1  UNL1        0.0278
     21 H           5.4834   -0.6466   -1.6530 H       1  UNL1        0.0278
     22 H           5.2704   -1.8705   -0.3751 H       1  UNL1        0.0278
     23 H           3.0268   -1.8621   -1.9515 H       1  UNL1        0.0621
     24 H           0.6550   -1.3318   -1.8387 H       1  UNL1        0.0624
     25 H          -0.4924    1.9330   -1.9502 H       1  UNL1        0.0624
     26 H          -2.8780    2.4915   -1.9854 H       1  UNL1        0.0620
     27 H          -0.0218   -0.8896    1.9499 H       1  UNL1        0.0311
     28 H          -1.6483   -0.9466    2.5682 H       1  UNL1        0.0311
     29 H          -0.8702   -3.2095    1.9295 H       1  UNL1        0.0233
     30 H          -2.2472   -2.7423    0.9183 H       1  UNL1        0.0233
     31 H          -0.6068   -2.6857    0.2582 H       1  UNL1        0.0233
     32 H          -3.5682   -0.2036    1.2912 H       1  UNL1        0.0623
     33 H          -5.1844    1.8089   -1.3643 H       1  UNL1        0.0278
     34 H          -5.4636    0.6744   -0.0440 H       1  UNL1        0.0278
     35 H          -5.0263    2.3623    0.3208 H       1  UNL1        0.0278
@<TRIPOS>BOND
     1     1     2    1
     2     2     3   ar
     3     3     4   ar
     4     4     5   ar
     5     5     6    1
     6     6     7   ar
     7     7     8   ar
     8     6     9   ar
     9     9    10    1
    10    10    11    1
    11     9    12   ar
    12    12    13   ar
    13    13    14    1
    14     5    15   ar
    15    15    16   ar
    16    16    17   ar
    17    17    18   ar
    18    18    19   ar
    19    19     2   ar
    20    13     8   ar
    21    19    15   ar
    22     1    20    1
    23     1    21    1
    24     1    22    1
    25     3    23    1
    26     4    24    1
    27     7    25    1
    28     8    26    1
    29    10    27    1
    30    10    28    1
    31    11    29    1
    32    11    30    1
    33    11    31    1
    34    12    32    1
    35    14    33    1
    36    14    34    1
    37    14    35    1
