@<TRIPOS>MOLECULE
*****
 40 43 0 0 0
SMALL
GASTEIGER

@<TRIPOS>ATOM
      1 C          -7.2694   -0.6128    1.0757 C.3     1  UNL1       -0.0397
      2 C          -5.8005   -0.4550    0.8182 C.ar    1  UNL1       -0.0504
      3 C          -5.0853    0.5931    1.4041 C.ar    1  UNL1       -0.0583
      4 C          -3.7087    0.7198    1.1899 C.ar    1  UNL1       -0.0538
      5 C          -3.0088   -0.2020    0.3949 C.ar    1  UNL1       -0.0178
      6 C          -1.5600   -0.0668    0.1702 C.ar    1  UNL1       -0.0172
      7 C          -1.0015    1.1386   -0.2671 C.ar    1  UNL1       -0.0534
      8 C           0.3796    1.2704   -0.4803 C.ar    1  UNL1       -0.0528
      9 C          -0.6867   -1.1392    0.3789 C.ar    1  UNL1       -0.0425
     10 C           0.6980   -1.0065    0.1585 C.ar    1  UNL1        0.0338
     11 C           1.5484   -2.1913    0.3823 C.2     1  UNL1        0.2335
     12 O           1.0917   -3.2224    0.8572 O.2     1  UNL1       -0.2832
     13 C           1.2720    0.2040   -0.2649 C.ar    1  UNL1       -0.0062
     14 C           2.7369    0.3247   -0.4678 C.ar    1  UNL1       -0.0063
     15 C           3.5767   -0.7970   -0.3520 C.ar    1  UNL1        0.0335
     16 C           3.0115   -2.1128    0.0025 C.2     1  UNL1        0.2335
     17 O           3.6998   -3.1246   -0.0041 O.2     1  UNL1       -0.2832
     18 C           4.9656   -0.7116   -0.5597 C.ar    1  UNL1       -0.0473
     19 C           3.3682    1.5457   -0.7775 C.ar    1  UNL1       -0.0531
     20 C           4.7526    1.6370   -0.9806 C.ar    1  UNL1       -0.0582
     21 C           5.5610    0.5058   -0.8897 C.ar    1  UNL1       -0.0497
     22 C           7.0456    0.6047   -1.0761 C.3     1  UNL1       -0.0397
     23 C          -3.7360   -1.2594   -0.1746 C.ar    1  UNL1       -0.0538
     24 C          -5.1128   -1.3880    0.0373 C.ar    1  UNL1       -0.0583
     25 H          -7.7665   -1.0883    0.2236 H       1  UNL1        0.0278
     26 H          -7.7463    0.3613    1.2271 H       1  UNL1        0.0278
     27 H          -7.4293   -1.2275    1.9669 H       1  UNL1        0.0278
     28 H          -5.5930    1.3185    2.0359 H       1  UNL1        0.0620
     29 H          -3.1810    1.5425    1.6682 H       1  UNL1        0.0624
     30 H          -1.6443    1.9965   -0.4624 H       1  UNL1        0.0624
     31 H           0.7238    2.2400   -0.8300 H       1  UNL1        0.0624
     32 H          -1.0825   -2.0944    0.7259 H       1  UNL1        0.0631
     33 H           5.5826   -1.6046   -0.4589 H       1  UNL1        0.0627
     34 H           2.8054    2.4713   -0.8640 H       1  UNL1        0.0624
     35 H           5.1914    2.6063   -1.2122 H       1  UNL1        0.0620
     36 H           7.4495   -0.3245   -1.4917 H       1  UNL1        0.0278
     37 H           7.2989    1.4094   -1.7743 H       1  UNL1        0.0278
     38 H           7.5310    0.8040   -0.1158 H       1  UNL1        0.0278
     39 H          -3.2349   -1.9964   -0.7994 H       1  UNL1        0.0624
     40 H          -5.6426   -2.2239   -0.4145 H       1  UNL1        0.0620
@<TRIPOS>BOND
     1     1     2    1
     2     2     3   ar
     3     3     4   ar
     4     4     5   ar
     5     5     6    1
     6     6     7   ar
     7     7     8   ar
     8     6     9   ar
     9     9    10   ar
    10    10    11    1
    11    11    12    2
    12    10    13   ar
    13    13    14    1
    14    14    15   ar
    15    15    16    1
    16    16    17    2
    17    15    18   ar
    18    14    19   ar
    19    19    20   ar
    20    20    21   ar
    21    21    22    1
    22     5    23   ar
    23    23    24   ar
    24    24     2   ar
    25    13     8   ar
    26    16    11    1
    27    21    18   ar
    28     1    25    1
    29     1    26    1
    30     1    27    1
    31     3    28    1
    32     4    29    1
    33     7    30    1
    34     8    31    1
    35     9    32    1
    36    18    33    1
    37    19    34    1
    38    20    35    1
    39    22    36    1
    40    22    37    1
    41    22    38    1
    42    23    39    1
    43    24    40    1
