@<TRIPOS>MOLECULE
*****
 29 31 0 0 0
SMALL
GASTEIGER

@<TRIPOS>ATOM
      1 C          -5.0962   -0.1982   -0.0040 C.3     1  UNL1       -0.0376
      2 C          -3.5981   -0.1880    0.0022 C.ar    1  UNL1       -0.0223
      3 C          -2.8958    1.0368   -0.0144 C.ar    1  UNL1       -0.0561
      4 C          -1.4837    1.1353   -0.0098 C.ar    1  UNL1       -0.0516
      5 C          -0.6104    0.0213    0.0096 C.ar    1  UNL1        0.0103
      6 C           0.8500    0.1612    0.0165 C.ar    1  UNL1       -0.0158
      7 C           1.6558   -0.5056   -0.9194 C.ar    1  UNL1       -0.0537
      8 C           3.0465   -0.3533   -0.9186 C.ar    1  UNL1       -0.0583
      9 C           1.4883    0.9939    0.9505 C.ar    1  UNL1       -0.0537
     10 C           2.8788    1.1485    0.9542 C.ar    1  UNL1       -0.0583
     11 C           3.6700    0.4658    0.0265 C.ar    1  UNL1       -0.0504
     12 C           5.1577    0.6530    0.0088 C.3     1  UNL1       -0.0397
     13 C          -1.2604   -1.2502    0.0279 C.ar    1  UNL1        0.1078
     14 N          -0.6713   -2.4603    0.0574 N.ar    1  UNL1       -0.1902
     15 S          -1.8783   -3.5915    0.0765 S.2     1  UNL1        0.1165
     16 N          -3.2173   -2.6181    0.0447 N.ar    1  UNL1       -0.1905
     17 C          -2.7758   -1.3491    0.0244 C.ar    1  UNL1        0.1034
     18 H          -5.4786    0.3263    0.8774 H       1  UNL1        0.0278
     19 H          -5.4959   -1.2164    0.0101 H       1  UNL1        0.0278
     20 H          -5.4710    0.2987   -0.9045 H       1  UNL1        0.0278
     21 H          -3.4678    1.9666   -0.0345 H       1  UNL1        0.0621
     22 H          -1.0500    2.1370   -0.0358 H       1  UNL1        0.0624
     23 H           1.2038   -1.1546   -1.6672 H       1  UNL1        0.0624
     24 H           3.6368   -0.8843   -1.6619 H       1  UNL1        0.0620
     25 H           0.9043    1.5269    1.6982 H       1  UNL1        0.0624
     26 H           3.3381    1.8025    1.6919 H       1  UNL1        0.0620
     27 H           5.5384    0.8531    1.0159 H       1  UNL1        0.0278
     28 H           5.6607   -0.2493   -0.3547 H       1  UNL1        0.0278
     29 H           5.4215    1.4920   -0.6424 H       1  UNL1        0.0278
@<TRIPOS>BOND
     1     1     2    1
     2     2     3   ar
     3     3     4   ar
     4     4     5   ar
     5     5     6    1
     6     6     7   ar
     7     7     8   ar
     8     6     9   ar
     9     9    10   ar
    10    10    11   ar
    11    11    12    1
    12     5    13   ar
    13    13    14   ar
    14    14    15   ar
    15    15    16   ar
    16    16    17   ar
    17    17     2   ar
    18    11     8   ar
    19    17    13   ar
    20     1    18    1
    21     1    19    1
    22     1    20    1
    23     3    21    1
    24     4    22    1
    25     7    23    1
    26     8    24    1
    27     9    25    1
    28    10    26    1
    29    12    27    1
    30    12    28    1
    31    12    29    1
