@<TRIPOS>MOLECULE
*****
 46 50 0 0 0
SMALL
GASTEIGER

@<TRIPOS>ATOM
      1 C          -7.6386    0.4743    0.0462 C.3     1  UNL1       -0.0397
      2 C          -6.1400    0.5201    0.0767 C.ar    1  UNL1       -0.0504
      3 C          -5.3920   -0.0140   -0.9768 C.ar    1  UNL1       -0.0583
      4 C          -3.9953    0.0567   -0.9621 C.ar    1  UNL1       -0.0538
      5 C          -3.3118    0.6722    0.0982 C.ar    1  UNL1       -0.0178
      6 C          -1.8428    0.7458    0.1116 C.ar    1  UNL1       -0.0173
      7 C          -1.1818    1.9579    0.2259 C.ar    1  UNL1       -0.0534
      8 C           0.2140    1.9998    0.2315 C.ar    1  UNL1       -0.0529
      9 C          -1.0523   -0.4097    0.0086 C.ar    1  UNL1       -0.0457
     10 C           0.3757   -0.4116    0.0115 C.ar    1  UNL1       -0.0090
     11 C           1.0318    0.8410    0.1257 C.ar    1  UNL1       -0.0095
     12 C           2.4657    0.9049    0.1318 C.ar    1  UNL1       -0.0096
     13 C           3.1771    2.1337    0.2360 C.ar    1  UNL1       -0.0532
     14 C           4.5696    2.2174    0.2460 C.ar    1  UNL1       -0.0582
     15 C           5.3236    1.0633    0.1614 C.ar    1  UNL1       -0.0498
     16 C           6.8212    1.1200    0.1360 C.3     1  UNL1       -0.0397
     17 C           4.6518   -0.1590    0.0412 C.ar    1  UNL1       -0.0505
     18 C           3.2306   -0.2862    0.0279 C.ar    1  UNL1       -0.0093
     19 C           2.5680   -1.5547   -0.0863 C.ar    1  UNL1       -0.0096
     20 C           3.2801   -2.7845   -0.1937 C.ar    1  UNL1       -0.0534
     21 C           2.6553   -4.0255   -0.3057 C.ar    1  UNL1       -0.0611
     22 C           1.2806   -4.0859   -0.3145 C.ar    1  UNL1       -0.0611
     23 C           0.5480   -2.9045   -0.2110 C.ar    1  UNL1       -0.0534
     24 C           1.1482   -1.6170   -0.0947 C.ar    1  UNL1       -0.0096
     25 C          -4.0736    1.2192    1.1424 C.ar    1  UNL1       -0.0538
     26 C          -5.4704    1.1486    1.1309 C.ar    1  UNL1       -0.0583
     27 H          -8.0489    0.4331    1.0608 H       1  UNL1        0.0278
     28 H          -7.9915   -0.4173   -0.4826 H       1  UNL1        0.0278
     29 H          -8.0300    1.3631   -0.4581 H       1  UNL1        0.0278
     30 H          -5.8899   -0.4884   -1.8195 H       1  UNL1        0.0620
     31 H          -3.4397   -0.3625   -1.7988 H       1  UNL1        0.0624
     32 H          -1.7407    2.8882    0.2996 H       1  UNL1        0.0624
     33 H           0.6491    2.9904    0.3212 H       1  UNL1        0.0624
     34 H          -1.5973   -1.3469   -0.0638 H       1  UNL1        0.0630
     35 H           2.6537    3.0820    0.3106 H       1  UNL1        0.0624
     36 H           5.0468    3.1913    0.3212 H       1  UNL1        0.0620
     37 H           7.2519    0.2519    0.6461 H       1  UNL1        0.0278
     38 H           7.1778    1.1378   -0.8985 H       1  UNL1        0.0278
     39 H           7.1900    2.0137    0.6504 H       1  UNL1        0.0278
     40 H           5.2827   -1.0391   -0.0442 H       1  UNL1        0.0626
     41 H           4.3654   -2.8083   -0.1922 H       1  UNL1        0.0624
     42 H           3.2483   -4.9322   -0.3845 H       1  UNL1        0.0618
     43 H           0.7702   -5.0409   -0.4002 H       1  UNL1        0.0618
     44 H          -0.5311   -3.0242   -0.2232 H       1  UNL1        0.0624
     45 H          -3.5793    1.7000    1.9843 H       1  UNL1        0.0624
     46 H          -6.0299    1.5860    1.9547 H       1  UNL1        0.0620
@<TRIPOS>BOND
     1     1     2    1
     2     2     3   ar
     3     3     4   ar
     4     4     5   ar
     5     5     6    1
     6     6     7   ar
     7     7     8   ar
     8     6     9   ar
     9     9    10   ar
    10    10    11   ar
    11    11    12   ar
    12    12    13   ar
    13    13    14   ar
    14    14    15   ar
    15    15    16    1
    16    15    17   ar
    17    12    18   ar
    18    18    19   ar
    19    19    20   ar
    20    20    21   ar
    21    21    22   ar
    22    22    23   ar
    23    23    24   ar
    24     5    25   ar
    25    25    26   ar
    26    26     2   ar
    27    11     8   ar
    28    24    10   ar
    29    18    17   ar
    30    24    19   ar
    31     1    27    1
    32     1    28    1
    33     1    29    1
    34     3    30    1
    35     4    31    1
    36     7    32    1
    37     8    33    1
    38     9    34    1
    39    13    35    1
    40    14    36    1
    41    16    37    1
    42    16    38    1
    43    16    39    1
    44    17    40    1
    45    20    41    1
    46    21    42    1
    47    22    43    1
    48    23    44    1
    49    25    45    1
    50    26    46    1
