@<TRIPOS>MOLECULE
*****
 47 52 0 0 0
SMALL
GASTEIGER

@<TRIPOS>ATOM
      1 C           7.6264   -0.6148   -0.2690 C.3     1  UNL1       -0.0376
      2 C           6.1666   -0.3065   -0.1330 C.ar    1  UNL1       -0.0223
      3 C           5.2732   -0.6221   -1.1801 C.ar    1  UNL1       -0.0561
      4 C           3.8820   -0.3651   -1.1331 C.ar    1  UNL1       -0.0516
      5 C           3.2240    0.2386   -0.0348 C.ar    1  UNL1        0.0103
      6 C           1.7789    0.4880   -0.0179 C.ar    1  UNL1       -0.0152
      7 C           1.2564    1.7421    0.2531 C.ar    1  UNL1       -0.0534
      8 C          -0.1247    1.9499    0.2395 C.ar    1  UNL1       -0.0529
      9 C           0.8607   -0.5374   -0.2995 C.ar    1  UNL1       -0.0456
     10 C          -0.5578   -0.3685   -0.3251 C.ar    1  UNL1       -0.0090
     11 C          -1.0674    0.9253   -0.0470 C.ar    1  UNL1       -0.0095
     12 C          -2.4833    1.1607   -0.0606 C.ar    1  UNL1       -0.0096
     13 C          -3.0494    2.4397    0.2046 C.ar    1  UNL1       -0.0532
     14 C          -4.4220    2.6893    0.1974 C.ar    1  UNL1       -0.0582
     15 C          -5.3020    1.6585   -0.0684 C.ar    1  UNL1       -0.0498
     16 C          -6.7806    1.8992   -0.1163 C.3     1  UNL1       -0.0397
     17 C          -4.7737    0.3927   -0.3489 C.ar    1  UNL1       -0.0505
     18 C          -3.3776    0.0974   -0.3503 C.ar    1  UNL1       -0.0093
     19 C          -2.8636   -1.2134   -0.6307 C.ar    1  UNL1       -0.0096
     20 C          -3.7101   -2.3207   -0.9279 C.ar    1  UNL1       -0.0534
     21 C          -3.2312   -3.6008   -1.2018 C.ar    1  UNL1       -0.0611
     22 C          -1.8738   -3.8259   -1.1885 C.ar    1  UNL1       -0.0611
     23 C          -1.0124   -2.7680   -0.9019 C.ar    1  UNL1       -0.0534
     24 C          -1.4615   -1.4455   -0.6175 C.ar    1  UNL1       -0.0096
     25 C           4.0745    0.5835    1.0592 C.ar    1  UNL1        0.1078
     26 N           3.7064    1.1580    2.2196 N.ar    1  UNL1       -0.1902
     27 S           5.0737    1.3273    3.1359 S.2     1  UNL1        0.1165
     28 N           6.2121    0.6896    2.1164 N.ar    1  UNL1       -0.1905
     29 C           5.5657    0.3036    1.0033 C.ar    1  UNL1        0.1034
     30 H           8.1895   -0.3170    0.6204 H       1  UNL1        0.0278
     31 H           7.7709   -1.6900   -0.4149 H       1  UNL1        0.0278
     32 H           8.0445   -0.0796   -1.1276 H       1  UNL1        0.0278
     33 H           5.6713   -1.0892   -2.0832 H       1  UNL1        0.0621
     34 H           3.2903   -0.6414   -2.0083 H       1  UNL1        0.0624
     35 H           1.9121    2.5806    0.4794 H       1  UNL1        0.0624
     36 H          -0.4437    2.9624    0.4677 H       1  UNL1        0.0624
     37 H           1.2901   -1.5162   -0.4939 H       1  UNL1        0.0630
     38 H          -2.4218    3.2973    0.4271 H       1  UNL1        0.0624
     39 H          -4.7844    3.6935    0.4028 H       1  UNL1        0.0620
     40 H          -7.3287    1.0272    0.2558 H       1  UNL1        0.0278
     41 H          -7.0614    2.7506    0.5127 H       1  UNL1        0.0278
     42 H          -7.0936    2.1039   -1.1448 H       1  UNL1        0.0278
     43 H          -5.4995   -0.3837   -0.5727 H       1  UNL1        0.0626
     44 H          -4.7901   -2.2126   -0.9530 H       1  UNL1        0.0624
     45 H          -3.9230   -4.4090   -1.4213 H       1  UNL1        0.0618
     46 H          -1.4764   -4.8151   -1.3968 H       1  UNL1        0.0618
     47 H           0.0444   -3.0160   -0.9055 H       1  UNL1        0.0624
@<TRIPOS>BOND
     1     1     2    1
     2     2     3   ar
     3     3     4   ar
     4     4     5   ar
     5     5     6    1
     6     6     7   ar
     7     7     8   ar
     8     6     9   ar
     9     9    10   ar
    10    10    11   ar
    11    11    12   ar
    12    12    13   ar
    13    13    14   ar
    14    14    15   ar
    15    15    16    1
    16    15    17   ar
    17    12    18   ar
    18    18    19   ar
    19    19    20   ar
    20    20    21   ar
    21    21    22   ar
    22    22    23   ar
    23    23    24   ar
    24     5    25   ar
    25    25    26   ar
    26    26    27   ar
    27    27    28   ar
    28    28    29   ar
    29    29     2   ar
    30    11     8   ar
    31    24    10   ar
    32    18    17   ar
    33    24    19   ar
    34    29    25   ar
    35     1    30    1
    36     1    31    1
    37     1    32    1
    38     3    33    1
    39     4    34    1
    40     7    35    1
    41     8    36    1
    42     9    37    1
    43    13    38    1
    44    14    39    1
    45    16    40    1
    46    16    41    1
    47    16    42    1
    48    17    43    1
    49    20    44    1
    50    21    45    1
    51    22    46    1
    52    23    47    1
