@<TRIPOS>MOLECULE
*****
 49 56 0 0 0
SMALL
GASTEIGER

@<TRIPOS>ATOM
      1 SI         -5.6998   -1.6109    1.9553 Si      1  UNL1        0.0000
      2 C          -6.5261   -0.0044    1.4597 C.2     1  UNL1        0.0000
      3 C          -5.6706    0.7745    0.7722 C.ar    1  UNL1        0.0000
      4 C          -5.9776    2.0850    0.2362 C.ar    1  UNL1        0.0000
      5 C          -5.0182    2.7522   -0.4320 C.ar    1  UNL1        0.0000
      6 C          -3.6804    2.1969   -0.6316 C.ar    1  UNL1        0.0000
      7 C          -3.3162    0.9767   -0.1708 C.ar    1  UNL1        0.0000
      8 C          -1.9432    0.5354   -0.4183 C.ar    1  UNL1        0.0000
      9 C          -0.8395    0.9103    0.3879 C.ar    1  UNL1        0.0000
     10 C           0.4629    0.4286    0.0910 C.ar    1  UNL1        0.0000
     11 N           1.6802    0.6380    0.7064 N.ar    1  UNL1        0.0000
     12 C           2.6953   -0.0449    0.0608 C.ar    1  UNL1        0.0000
     13 C           2.1195   -0.7289   -1.0183 C.ar    1  UNL1        0.0000
     14 N           2.8251   -1.5074   -1.8755 N.ar    1  UNL1        0.0000
     15 C           4.1521   -1.5890   -1.6246 C.ar    1  UNL1        0.0000
     16 C           4.8504   -0.9642   -0.5924 C.ar    1  UNL1        0.0000
     17 C           6.2808   -1.1334   -0.4314 C.ar    1  UNL1        0.0000
     18 C           7.0610   -0.5351    0.5877 C.ar    1  UNL1        0.0000
     19 C           6.2618    0.2393    1.4145 C.ar    1  UNL1        0.0000
     20 C           6.6745    0.9615    2.5008 C.ar    1  UNL1        0.0000
     21 O           5.5985    1.5926    3.0589 O.2     1  UNL1        0.0000
     22 C           4.4949    1.2648    2.3167 C.ar    1  UNL1        0.0000
     23 C           4.8511    0.4301    1.2881 C.ar    1  UNL1        0.0000
     24 C           4.0687   -0.1543    0.2871 C.ar    1  UNL1        0.0000
     25 C           0.7614   -0.4158   -0.9655 C.ar    1  UNL1        0.0000
     26 C          -0.3230   -0.8134   -1.7923 C.ar    1  UNL1        0.0000
     27 C          -0.3498   -1.6233   -2.8859 C.ar    1  UNL1        0.0000
     28 N          -1.6735   -1.6468   -3.2724 N.ar    1  UNL1        0.0000
     29 C          -2.4379   -0.8611   -2.4240 C.ar    1  UNL1        0.0000
     30 C          -1.5992   -0.3201   -1.4726 C.ar    1  UNL1        0.0000
     31 C          -4.3164    0.2033    0.5710 C.ar    1  UNL1        0.0000
     32 C          -4.1423   -1.0193    1.1126 C.2     1  UNL1        0.0000
     33 H          -6.3078   -2.7841    1.2815 H       1  UNL1        0.0000
     34 H          -5.5454   -1.7300    3.4257 H       1  UNL1        0.0000
     35 H          -7.5502    0.2105    1.7179 H       1  UNL1        0.0000
     36 H          -6.9664    2.5052    0.3780 H       1  UNL1        0.0000
     37 H          -5.2163    3.7351   -0.8478 H       1  UNL1        0.0000
     38 H          -2.9803    2.8182   -1.1848 H       1  UNL1        0.0000
     39 H          -0.9984    1.5663    1.2407 H       1  UNL1        0.0000
     40 H           1.8000    1.2170    1.5221 H       1  UNL1        0.0000
     41 H           4.6809   -2.2225   -2.3349 H       1  UNL1        0.0000
     42 H           6.8060   -1.7700   -1.1469 H       1  UNL1        0.0000
     43 H           8.1278   -0.6781    0.6851 H       1  UNL1        0.0000
     44 H           7.6225    1.1334    2.9905 H       1  UNL1        0.0000
     45 H           3.5779    1.7105    2.6682 H       1  UNL1        0.0000
     46 H           0.4140   -2.1734   -3.4185 H       1  UNL1        0.0000
     47 H          -2.0360   -2.1635   -4.0625 H       1  UNL1        0.0000
     48 H          -3.5039   -0.7681   -2.5838 H       1  UNL1        0.0000
     49 H          -3.2490   -1.6233    1.0864 H       1  UNL1        0.0000
@<TRIPOS>BOND
     1     1     2    1
     2     2     3    2
     3     3     4   ar
     4     4     5   ar
     5     5     6   ar
     6     6     7   ar
     7     7     8    1
     8     8     9   ar
     9     9    10   ar
    10    10    11   ar
    11    11    12   ar
    12    12    13   ar
    13    13    14   ar
    14    14    15   ar
    15    15    16   ar
    16    16    17   ar
    17    17    18   ar
    18    18    19   ar
    19    19    20   ar
    20    20    21   ar
    21    21    22   ar
    22    22    23   ar
    23    23    24   ar
    24    13    25   ar
    25    25    26   ar
    26    26    27   ar
    27    27    28   ar
    28    28    29   ar
    29    29    30   ar
    30     7    31   ar
    31    31    32    2
    32    32     1    1
    33    31     3   ar
    34    30     8   ar
    35    25    10   ar
    36    30    26   ar
    37    24    12   ar
    38    24    16   ar
    39    23    19   ar
    40     1    33    1
    41     1    34    1
    42     2    35    1
    43     4    36    1
    44     5    37    1
    45     6    38    1
    46     9    39    1
    47    11    40    1
    48    15    41    1
    49    17    42    1
    50    18    43    1
    51    20    44    1
    52    22    45    1
    53    27    46    1
    54    28    47    1
    55    29    48    1
    56    32    49    1
