@<TRIPOS>MOLECULE
*****
 27 28 0 0 0
SMALL
GASTEIGER

@<TRIPOS>ATOM
      1 C           5.0045    0.3026    0.0862 C.3     1  UNL1       -0.0397
      2 C           3.5101    0.1870    0.1225 C.ar    1  UNL1       -0.0504
      3 C           2.7254    0.8262   -0.8397 C.ar    1  UNL1       -0.0582
      4 C           1.3294    0.7451   -0.7838 C.ar    1  UNL1       -0.0523
      5 C           0.6713    0.0299    0.2328 C.ar    1  UNL1        0.0004
      6 C          -0.8053   -0.0479    0.2665 C.ar    1  UNL1        0.0710
      7 C          -1.4959   -1.1493    0.7727 C.ar    1  UNL1       -0.0354
      8 C          -2.8911   -1.1466    0.7711 C.ar    1  UNL1       -0.0554
      9 N          -1.4658    1.0225   -0.2452 N.ar    1  UNL1       -0.2547
     10 C          -2.8183    1.0016   -0.2325 C.ar    1  UNL1        0.0312
     11 C          -3.5788   -0.0433    0.2728 C.ar    1  UNL1       -0.0323
     12 C          -5.0722   -0.0115    0.2197 C.3     1  UNL1       -0.0383
     13 C           1.4778   -0.5863    1.2064 C.ar    1  UNL1       -0.0523
     14 C           2.8753   -0.5074    1.1552 C.ar    1  UNL1       -0.0582
     15 H           5.4755   -0.5863    0.5190 H       1  UNL1        0.0278
     16 H           5.3257    1.1835    0.6504 H       1  UNL1        0.0278
     17 H           5.3645    0.3911   -0.9442 H       1  UNL1        0.0278
     18 H           3.1896    1.3957   -1.6415 H       1  UNL1        0.0620
     19 H           0.7444    1.2521   -1.5501 H       1  UNL1        0.0624
     20 H          -0.9670   -2.0179    1.1498 H       1  UNL1        0.0639
     21 H          -3.4295   -2.0086    1.1562 H       1  UNL1        0.0621
     22 H          -3.2860    1.8854   -0.6584 H       1  UNL1        0.0832
     23 H          -5.4235   -0.4308   -0.7281 H       1  UNL1        0.0278
     24 H          -5.5047   -0.5896    1.0431 H       1  UNL1        0.0278
     25 H          -5.4450    1.0140    0.3124 H       1  UNL1        0.0278
     26 H           1.0272   -1.1222    2.0385 H       1  UNL1        0.0624
     27 H           3.4623   -0.9890    1.9341 H       1  UNL1        0.0620
@<TRIPOS>BOND
     1     1     2    1
     2     2     3   ar
     3     3     4   ar
     4     4     5   ar
     5     5     6    1
     6     6     7   ar
     7     7     8   ar
     8     6     9   ar
     9     9    10   ar
    10    10    11   ar
    11    11    12    1
    12     5    13   ar
    13    13    14   ar
    14    14     2   ar
    15    11     8   ar
    16     1    15    1
    17     1    16    1
    18     1    17    1
    19     3    18    1
    20     4    19    1
    21     7    20    1
    22     8    21    1
    23    10    22    1
    24    12    23    1
    25    12    24    1
    26    12    25    1
    27    13    26    1
    28    14    27    1
