@<TRIPOS>MOLECULE
*****
 26 27 0 0 0
SMALL
GASTEIGER

@<TRIPOS>ATOM
      1 C           4.8590    0.4862   -0.2626 C.3     1  UNL1       -0.0397
      2 C           3.3663    0.3788   -0.1685 C.ar    1  UNL1       -0.0504
      3 C           2.7622   -0.1605    0.9697 C.ar    1  UNL1       -0.0582
      4 C           1.3694   -0.2874    1.0442 C.ar    1  UNL1       -0.0523
      5 C           0.5380    0.1067   -0.0197 C.ar    1  UNL1        0.0021
      6 C          -0.9311   -0.0243    0.0391 C.ar    1  UNL1        0.0933
      7 C          -1.5916   -1.0138    0.7583 C.ar    1  UNL1       -0.0322
      8 C          -2.9842   -1.0551    0.7479 C.ar    1  UNL1       -0.0369
      9 N          -1.6453    0.8807   -0.6701 N.ar    1  UNL1       -0.1490
     10 N          -3.0207    0.8431   -0.6827 N.ar    1  UNL1       -0.1540
     11 C          -3.6752   -0.1053    0.0147 C.ar    1  UNL1        0.0606
     12 C          -5.1693   -0.1014   -0.0342 C.3     1  UNL1       -0.0206
     13 C           1.1667    0.6417   -1.1590 C.ar    1  UNL1       -0.0523
     14 C           2.5580    0.7695   -1.2379 C.ar    1  UNL1       -0.0582
     15 H           5.2741   -0.4322   -0.6889 H       1  UNL1        0.0278
     16 H           5.3021    0.6498    0.7255 H       1  UNL1        0.0278
     17 H           5.1510    1.3327   -0.8930 H       1  UNL1        0.0278
     18 H           3.3701   -0.4802    1.8133 H       1  UNL1        0.0620
     19 H           0.9442   -0.6864    1.9622 H       1  UNL1        0.0624
     20 H          -1.0423   -1.7661    1.3136 H       1  UNL1        0.0640
     21 H          -3.5131   -1.8233    1.3022 H       1  UNL1        0.0637
     22 H          -5.5378    0.7219   -0.6546 H       1  UNL1        0.0293
     23 H          -5.5810    0.0207    0.9724 H       1  UNL1        0.0293
     24 H          -5.5365   -1.0400   -0.4608 H       1  UNL1        0.0293
     25 H           0.5666    0.9632   -2.0100 H       1  UNL1        0.0624
     26 H           3.0005    1.1810   -2.1425 H       1  UNL1        0.0620
@<TRIPOS>BOND
     1     1     2    1
     2     2     3   ar
     3     3     4   ar
     4     4     5   ar
     5     5     6    1
     6     6     7   ar
     7     7     8   ar
     8     6     9   ar
     9     9    10   ar
    10    10    11   ar
    11    11    12    1
    12     5    13   ar
    13    13    14   ar
    14    14     2   ar
    15    11     8   ar
    16     1    15    1
    17     1    16    1
    18     1    17    1
    19     3    18    1
    20     4    19    1
    21     7    20    1
    22     8    21    1
    23    12    22    1
    24    12    23    1
    25    12    24    1
    26    13    25    1
    27    14    26    1
