@<TRIPOS>MOLECULE
*****
 39 42 0 0 0
SMALL
GASTEIGER

@<TRIPOS>ATOM
      1 C           7.1345    0.4080    0.5910 C.3     1  UNL1       -0.0397
      2 C           5.6507    0.2485    0.4432 C.ar    1  UNL1       -0.0504
      3 C           4.8706    1.2955   -0.0566 C.ar    1  UNL1       -0.0583
      4 C           3.4911    1.1352   -0.2232 C.ar    1  UNL1       -0.0538
      5 C           2.8586   -0.0771    0.0934 C.ar    1  UNL1       -0.0179
      6 C           1.4063   -0.2441   -0.0828 C.ar    1  UNL1       -0.0176
      7 C           0.5033    0.6446    0.5273 C.ar    1  UNL1       -0.0500
      8 C          -0.8580    0.4549    0.3392 C.ar    1  UNL1       -0.0348
      9 C          -2.0021    1.2764    0.8975 C.3     1  UNL1       -0.0012
     10 C           0.8930   -1.3032   -0.8705 C.ar    1  UNL1       -0.0534
     11 C          -0.4836   -1.4880   -1.0572 C.ar    1  UNL1       -0.0532
     12 C          -1.3544   -0.6039   -0.4480 C.ar    1  UNL1       -0.0141
     13 C          -2.8005   -0.5402   -0.4552 C.ar    1  UNL1       -0.0141
     14 C          -3.7395   -1.3482   -1.0712 C.ar    1  UNL1       -0.0535
     15 C          -5.0953   -1.0451   -0.8991 C.ar    1  UNL1       -0.0582
     16 C          -3.2096    0.5590    0.3290 C.ar    1  UNL1       -0.0351
     17 C          -4.5493    0.8670    0.5056 C.ar    1  UNL1       -0.0548
     18 C          -5.5073    0.0620   -0.1264 C.ar    1  UNL1       -0.0501
     19 C          -6.9703    0.3393    0.0656 C.3     1  UNL1       -0.0397
     20 C           3.6542   -1.1260    0.5799 C.ar    1  UNL1       -0.0538
     21 C           5.0337   -0.9682    0.7487 C.ar    1  UNL1       -0.0583
     22 H           7.5141   -0.2105    1.4112 H       1  UNL1        0.0278
     23 H           7.3948    1.4466    0.8208 H       1  UNL1        0.0278
     24 H           7.6366    0.1139   -0.3357 H       1  UNL1        0.0278
     25 H           5.3297    2.2449   -0.3226 H       1  UNL1        0.0620
     26 H           2.9104    1.9657   -0.6196 H       1  UNL1        0.0624
     27 H           0.8606    1.4618    1.1472 H       1  UNL1        0.0627
     28 H          -2.0085    1.2381    1.9907 H       1  UNL1        0.0362
     29 H          -1.9549    2.3056    0.5298 H       1  UNL1        0.0362
     30 H           1.5808   -1.9919   -1.3589 H       1  UNL1        0.0624
     31 H          -0.8467   -2.3066   -1.6690 H       1  UNL1        0.0624
     32 H          -3.4421   -2.2004   -1.6723 H       1  UNL1        0.0624
     33 H          -5.8401   -1.6806   -1.3744 H       1  UNL1        0.0620
     34 H          -4.8446    1.7126    1.1190 H       1  UNL1        0.0623
     35 H          -7.5421    0.0470   -0.8214 H       1  UNL1        0.0278
     36 H          -7.1478    1.4075    0.2285 H       1  UNL1        0.0278
     37 H          -7.3458   -0.2176    0.9295 H       1  UNL1        0.0278
     38 H           3.1991   -2.0792    0.8419 H       1  UNL1        0.0624
     39 H           5.6205   -1.8033    1.1243 H       1  UNL1        0.0620
@<TRIPOS>BOND
     1     1     2    1
     2     2     3   ar
     3     3     4   ar
     4     4     5   ar
     5     5     6    1
     6     6     7   ar
     7     7     8   ar
     8     8     9    1
     9     6    10   ar
    10    10    11   ar
    11    11    12   ar
    12    12    13    1
    13    13    14   ar
    14    14    15   ar
    15    13    16   ar
    16    16    17   ar
    17    17    18   ar
    18    18    19    1
    19     5    20   ar
    20    20    21   ar
    21    21     2   ar
    22    12     8   ar
    23    16     9    1
    24    18    15   ar
    25     1    22    1
    26     1    23    1
    27     1    24    1
    28     3    25    1
    29     4    26    1
    30     7    27    1
    31     9    28    1
    32     9    29    1
    33    10    30    1
    34    11    31    1
    35    14    32    1
    36    15    33    1
    37    17    34    1
    38    19    35    1
    39    19    36    1
    40    19    37    1
    41    20    38    1
    42    21    39    1
