@<TRIPOS>MOLECULE
*****
 40 44 0 0 0
SMALL
GASTEIGER

@<TRIPOS>ATOM
      1 C          -7.1422    0.5106   -0.2310 C.3     1  UNL1       -0.0376
      2 C          -5.6686    0.2414   -0.2066 C.ar    1  UNL1       -0.0223
      3 C          -4.7672    1.1712   -0.7696 C.ar    1  UNL1       -0.0561
      4 C          -3.3628    0.9947   -0.7886 C.ar    1  UNL1       -0.0516
      5 C          -2.6983   -0.1326   -0.2492 C.ar    1  UNL1        0.0103
      6 C          -1.2388   -0.2819   -0.2832 C.ar    1  UNL1       -0.0155
      7 C          -0.4069    0.7420    0.2064 C.ar    1  UNL1       -0.0499
      8 C           0.9698    0.5811    0.1444 C.ar    1  UNL1       -0.0348
      9 C           2.0457    1.5394    0.6140 C.3     1  UNL1       -0.0012
     10 C          -0.6358   -1.4424   -0.8263 C.ar    1  UNL1       -0.0534
     11 C           0.7559   -1.5985   -0.8860 C.ar    1  UNL1       -0.0532
     12 C           1.5536   -0.5808   -0.3986 C.ar    1  UNL1       -0.0141
     13 C           2.9939   -0.4570   -0.3245 C.ar    1  UNL1       -0.0141
     14 C           3.9986   -1.3228   -0.7179 C.ar    1  UNL1       -0.0535
     15 C           5.3288   -0.9348   -0.5187 C.ar    1  UNL1       -0.0582
     16 C           3.3121    0.7840    0.2664 C.ar    1  UNL1       -0.0351
     17 C           4.6258    1.1770    0.4682 C.ar    1  UNL1       -0.0548
     18 C           5.6505    0.3121    0.0595 C.ar    1  UNL1       -0.0501
     19 C           7.0870    0.6826    0.2905 C.3     1  UNL1       -0.0397
     20 C          -3.5560   -1.1120    0.3374 C.ar    1  UNL1        0.1078
     21 N          -3.1846   -2.2648    0.9250 N.ar    1  UNL1       -0.1902
     22 S          -4.5651   -3.0175    1.4398 S.2     1  UNL1        0.1165
     23 N          -5.7138   -1.9315    0.9467 N.ar    1  UNL1       -0.1905
     24 C          -5.0615   -0.9160    0.3560 C.ar    1  UNL1        0.1034
     25 H          -7.7108   -0.2967    0.2400 H       1  UNL1        0.0278
     26 H          -7.4888    0.6083   -1.2648 H       1  UNL1        0.0278
     27 H          -7.3633    1.4375    0.3077 H       1  UNL1        0.0278
     28 H          -5.1689    2.0806   -1.2209 H       1  UNL1        0.0621
     29 H          -2.7642    1.7756   -1.2618 H       1  UNL1        0.0624
     30 H          -0.8278    1.6443    0.6405 H       1  UNL1        0.0627
     31 H           1.9753    1.7008    1.6936 H       1  UNL1        0.0362
     32 H           1.9927    2.4815    0.0607 H       1  UNL1        0.0362
     33 H          -1.2618   -2.2458   -1.2126 H       1  UNL1        0.0624
     34 H           1.1855   -2.5019   -1.3049 H       1  UNL1        0.0624
     35 H           3.7708   -2.2833   -1.1671 H       1  UNL1        0.0624
     36 H           6.1245   -1.6141   -0.8183 H       1  UNL1        0.0620
     37 H           4.8508    2.1323    0.9321 H       1  UNL1        0.0623
     38 H           7.4168    0.3103    1.2653 H       1  UNL1        0.0278
     39 H           7.2199    1.7693    0.2632 H       1  UNL1        0.0278
     40 H           7.7292    0.2577   -0.4880 H       1  UNL1        0.0278
@<TRIPOS>BOND
     1     1     2    1
     2     2     3   ar
     3     3     4   ar
     4     4     5   ar
     5     5     6    1
     6     6     7   ar
     7     7     8   ar
     8     8     9    1
     9     6    10   ar
    10    10    11   ar
    11    11    12   ar
    12    12    13    1
    13    13    14   ar
    14    14    15   ar
    15    13    16   ar
    16    16    17   ar
    17    17    18   ar
    18    18    19    1
    19     5    20   ar
    20    20    21   ar
    21    21    22   ar
    22    22    23   ar
    23    23    24   ar
    24    24     2   ar
    25    12     8   ar
    26    16     9    1
    27    18    15   ar
    28    24    20   ar
    29     1    25    1
    30     1    26    1
    31     1    27    1
    32     3    28    1
    33     4    29    1
    34     7    30    1
    35     9    31    1
    36     9    32    1
    37    10    33    1
    38    11    34    1
    39    14    35    1
    40    15    36    1
    41    17    37    1
    42    19    38    1
    43    19    39    1
    44    19    40    1
