@<TRIPOS>MOLECULE
*****
 39 43 0 0 0
SMALL
GASTEIGER

@<TRIPOS>ATOM
      1 C           6.9984    1.1466   -0.3249 C.3     1  UNL1       -0.0376
      2 C           5.5586    0.7523   -0.1993 C.ar    1  UNL1       -0.0223
      3 C           4.6038    1.2477   -1.1143 C.ar    1  UNL1       -0.0561
      4 C           3.2263    0.9254   -1.0673 C.ar    1  UNL1       -0.0516
      5 C           2.6456    0.0689   -0.1017 C.ar    1  UNL1        0.0104
      6 C           1.2114   -0.2419   -0.0809 C.ar    1  UNL1       -0.0138
      7 C           0.2616    0.7984   -0.0649 C.ar    1  UNL1       -0.0300
      8 C          -1.1017    0.4691   -0.0650 C.ar    1  UNL1        0.0481
      9 N          -2.2112    1.2811   -0.0427 N.ar    1  UNL1       -0.3541
     10 C           0.7578   -1.5695   -0.0991 C.ar    1  UNL1       -0.0533
     11 C          -0.6092   -1.8843   -0.1002 C.ar    1  UNL1       -0.0514
     12 C          -1.5593   -0.8458   -0.0839 C.ar    1  UNL1        0.0074
     13 C          -2.9900   -0.8032   -0.0797 C.ar    1  UNL1        0.0074
     14 C          -4.0004   -1.7853   -0.0891 C.ar    1  UNL1       -0.0518
     15 C          -5.3449   -1.3922   -0.0797 C.ar    1  UNL1       -0.0581
     16 C          -3.3679    0.5376   -0.0564 C.ar    1  UNL1        0.0477
     17 C          -4.7069    0.9497   -0.0453 C.ar    1  UNL1       -0.0349
     18 C          -5.7021   -0.0399   -0.0710 C.ar    1  UNL1       -0.0485
     19 C          -7.1508    0.3542   -0.0269 C.3     1  UNL1       -0.0396
     20 C           3.5602   -0.4666    0.8551 C.ar    1  UNL1        0.1078
     21 N           3.2704   -1.2937    1.8767 N.ar    1  UNL1       -0.1902
     22 S           4.6869   -1.5985    2.6754 S.2     1  UNL1        0.1165
     23 N           5.7504   -0.7041    1.7746 N.ar    1  UNL1       -0.1905
     24 C           5.0363   -0.1156    0.8002 C.ar    1  UNL1        0.1034
     25 H           7.3909    0.8297   -1.2964 H       1  UNL1        0.0278
     26 H           7.0989    2.2332   -0.2377 H       1  UNL1        0.0278
     27 H           7.6151    0.6878    0.4535 H       1  UNL1        0.0278
     28 H           4.9401    1.9165   -1.9091 H       1  UNL1        0.0621
     29 H           2.5814    1.3579   -1.8348 H       1  UNL1        0.0624
     30 H           0.5753    1.8381   -0.0393 H       1  UNL1        0.0644
     31 H          -2.1820    2.2893   -0.0192 H       1  UNL1        0.1659
     32 H           1.4740   -2.3898   -0.1127 H       1  UNL1        0.0624
     33 H          -0.9275   -2.9224   -0.1113 H       1  UNL1        0.0624
     34 H          -3.7412   -2.8396   -0.1000 H       1  UNL1        0.0624
     35 H          -6.1149   -2.1609   -0.0794 H       1  UNL1        0.0620
     36 H          -4.9666    2.0036   -0.0185 H       1  UNL1        0.0641
     37 H          -7.4890    0.4188    1.0119 H       1  UNL1        0.0278
     38 H          -7.3070    1.3238   -0.5113 H       1  UNL1        0.0278
     39 H          -7.7706   -0.3765   -0.5572 H       1  UNL1        0.0278
@<TRIPOS>BOND
     1     1     2    1
     2     2     3   ar
     3     3     4   ar
     4     4     5   ar
     5     5     6    1
     6     6     7   ar
     7     7     8   ar
     8     8     9   ar
     9     6    10   ar
    10    10    11   ar
    11    11    12   ar
    12    12    13   ar
    13    13    14   ar
    14    14    15   ar
    15    13    16   ar
    16    16    17   ar
    17    17    18   ar
    18    18    19    1
    19     5    20   ar
    20    20    21   ar
    21    21    22   ar
    22    22    23   ar
    23    23    24   ar
    24    24     2   ar
    25    12     8   ar
    26    16     9   ar
    27    18    15   ar
    28    24    20   ar
    29     1    25    1
    30     1    26    1
    31     1    27    1
    32     3    28    1
    33     4    29    1
    34     7    30    1
    35     9    31    1
    36    10    32    1
    37    11    33    1
    38    14    34    1
    39    15    35    1
    40    17    36    1
    41    19    37    1
    42    19    38    1
    43    19    39    1
