@<TRIPOS>MOLECULE
*****
 30 31 0 0 0
SMALL
GASTEIGER

@<TRIPOS>ATOM
      1 C          -5.1376    0.1063    0.4653 C.3     1  UNL1       -0.0397
      2 C          -3.6420    0.0915    0.3490 C.ar    1  UNL1       -0.0504
      3 C          -2.8693   -0.6649    1.2365 C.ar    1  UNL1       -0.0583
      4 C          -1.4780   -0.7032    1.1095 C.ar    1  UNL1       -0.0537
      5 C          -0.8321    0.0039    0.0859 C.ar    1  UNL1       -0.0143
      6 C           0.6276   -0.0476   -0.0567 C.ar    1  UNL1        0.0270
      7 C           1.4350    0.7099    0.8082 C.ar    1  UNL1       -0.0087
      8 C           2.8260    0.6859    0.6846 C.ar    1  UNL1        0.1206
      9 O           3.6042    1.4281    1.5284 O.3     1  UNL1       -0.5065
     10 C           1.2641   -0.8266   -1.0369 C.ar    1  UNL1        0.1250
     11 C           2.6543   -0.8466   -1.1590 C.ar    1  UNL1       -0.0132
     12 C           3.4526   -0.0876   -0.2957 C.ar    1  UNL1       -0.0055
     13 C           4.9473   -0.1102   -0.4253 C.3     1  UNL1       -0.0361
     14 O           0.5717   -1.6137   -1.9190 O.3     1  UNL1       -0.5061
     15 C          -1.6130    0.7500   -0.8084 C.ar    1  UNL1       -0.0537
     16 C          -3.0042    0.7892   -0.6821 C.ar    1  UNL1       -0.0583
     17 H          -5.5666   -0.7102   -0.1236 H       1  UNL1        0.0278
     18 H          -5.5479    1.0559    0.1060 H       1  UNL1        0.0278
     19 H          -5.4493   -0.0075    1.5089 H       1  UNL1        0.0278
     20 H          -3.3452   -1.2306    2.0348 H       1  UNL1        0.0620
     21 H          -0.8976   -1.2985    1.8122 H       1  UNL1        0.0624
     22 H           0.9630    1.3219    1.5724 H       1  UNL1        0.0661
     23 H           3.0283    1.9159    2.1392 H       1  UNL1        0.2921
     24 H           3.1077   -1.4627   -1.9316 H       1  UNL1        0.0658
     25 H           5.3252    0.8957   -0.6344 H       1  UNL1        0.0279
     26 H           5.2695   -0.7629   -1.2435 H       1  UNL1        0.0279
     27 H           5.4023   -0.4845    0.4974 H       1  UNL1        0.0279
     28 H          -0.3731   -1.5765   -1.6901 H       1  UNL1        0.2922
     29 H          -1.1373    1.3078   -1.6136 H       1  UNL1        0.0624
     30 H          -3.5857    1.3716   -1.3937 H       1  UNL1        0.0620
@<TRIPOS>BOND
     1     1     2    1
     2     2     3   ar
     3     3     4   ar
     4     4     5   ar
     5     5     6    1
     6     6     7   ar
     7     7     8   ar
     8     8     9    1
     9     6    10   ar
    10    10    11   ar
    11    11    12   ar
    12    12    13    1
    13    10    14    1
    14     5    15   ar
    15    15    16   ar
    16    16     2   ar
    17    12     8   ar
    18     1    17    1
    19     1    18    1
    20     1    19    1
    21     3    20    1
    22     4    21    1
    23     7    22    1
    24     9    23    1
    25    11    24    1
    26    13    25    1
    27    13    26    1
    28    13    27    1
    29    14    28    1
    30    15    29    1
    31    16    30    1
