@<TRIPOS>MOLECULE
*****
 39 42 0 0 0
SMALL
GASTEIGER

@<TRIPOS>ATOM
      1 C           7.2167    0.0711   -0.1509 C.3     1  UNL1       -0.0397
      2 C           5.7183    0.1156   -0.1971 C.ar    1  UNL1       -0.0504
      3 C           5.0210   -0.5108   -1.2340 C.ar    1  UNL1       -0.0583
      4 C           3.6225   -0.4964   -1.2587 C.ar    1  UNL1       -0.0538
      5 C           2.8856    0.1336   -0.2436 C.ar    1  UNL1       -0.0178
      6 C           1.4137    0.1469   -0.2702 C.ar    1  UNL1       -0.0160
      7 C           0.6723   -0.3080    0.8285 C.ar    1  UNL1       -0.0281
      8 C          -0.7083   -0.2660    0.7374 C.ar    1  UNL1        0.1019
      9 S          -1.8355   -0.7807    1.9859 S.O2    1  UNL1        0.0262
     10 O          -1.7425    0.1404    3.0977 O.2     1  UNL1       -0.1643
     11 O          -1.7575   -2.2196    2.1141 O.2     1  UNL1       -0.1643
     12 C           0.7149    0.6224   -1.4082 C.ar    1  UNL1       -0.0533
     13 C          -0.6894    0.6525   -1.4685 C.ar    1  UNL1       -0.0516
     14 C          -1.4196    0.2023   -0.3805 C.ar    1  UNL1        0.0092
     15 C          -2.8729    0.1386   -0.2099 C.ar    1  UNL1        0.0092
     16 C          -3.8708    0.5071   -1.0998 C.ar    1  UNL1       -0.0519
     17 C          -5.2148    0.3550   -0.7213 C.ar    1  UNL1       -0.0582
     18 C          -3.2628   -0.3775    1.0390 C.ar    1  UNL1        0.1016
     19 C          -4.5755   -0.5412    1.4439 C.ar    1  UNL1       -0.0329
     20 C          -5.5745   -0.1542    0.5461 C.ar    1  UNL1       -0.0486
     21 C          -7.0223   -0.3334    0.9015 C.3     1  UNL1       -0.0397
     22 C           3.5966    0.7455    0.8007 C.ar    1  UNL1       -0.0538
     23 C           4.9950    0.7334    0.8272 C.ar    1  UNL1       -0.0583
     24 H           7.5481   -0.8193    0.3920 H       1  UNL1        0.0278
     25 H           7.6187    0.9597    0.3469 H       1  UNL1        0.0278
     26 H           7.6380    0.0470   -1.1615 H       1  UNL1        0.0278
     27 H           5.5604   -1.0185   -2.0305 H       1  UNL1        0.0620
     28 H           3.1093   -0.9995   -2.0758 H       1  UNL1        0.0624
     29 H           1.1544   -0.6926    1.7227 H       1  UNL1        0.0643
     30 H           1.2779    0.9914   -2.2657 H       1  UNL1        0.0624
     31 H          -1.1770    1.0305   -2.3621 H       1  UNL1        0.0624
     32 H          -3.6349    0.9066   -2.0816 H       1  UNL1        0.0624
     33 H          -5.9935    0.6395   -1.4281 H       1  UNL1        0.0620
     34 H          -4.8093   -0.9535    2.4205 H       1  UNL1        0.0639
     35 H          -7.6361    0.4456    0.4375 H       1  UNL1        0.0278
     36 H          -7.1711   -0.2625    1.9841 H       1  UNL1        0.0278
     37 H          -7.3723   -1.3123    0.5598 H       1  UNL1        0.0278
     38 H           3.0636    1.2483    1.6056 H       1  UNL1        0.0624
     39 H           5.5136    1.2130    1.6544 H       1  UNL1        0.0620
@<TRIPOS>BOND
     1     1     2    1
     2     2     3   ar
     3     3     4   ar
     4     4     5   ar
     5     5     6    1
     6     6     7   ar
     7     7     8   ar
     8     8     9    1
     9     9    10    2
    10     9    11    2
    11     6    12   ar
    12    12    13   ar
    13    13    14   ar
    14    14    15    1
    15    15    16   ar
    16    16    17   ar
    17    15    18   ar
    18    18    19   ar
    19    19    20   ar
    20    20    21    1
    21     5    22   ar
    22    22    23   ar
    23    23     2   ar
    24    14     8   ar
    25    18     9    1
    26    20    17   ar
    27     1    24    1
    28     1    25    1
    29     1    26    1
    30     3    27    1
    31     4    28    1
    32     7    29    1
    33    12    30    1
    34    13    31    1
    35    16    32    1
    36    17    33    1
    37    19    34    1
    38    21    35    1
    39    21    36    1
    40    21    37    1
    41    22    38    1
    42    23    39    1
