@<TRIPOS>MOLECULE
*****
 40 44 0 0 0
SMALL
GASTEIGER

@<TRIPOS>ATOM
      1 C          -7.2152   -0.2445    0.0687 C.3     1  UNL1       -0.0376
      2 C          -5.7274   -0.0999    0.1692 C.ar    1  UNL1       -0.0223
      3 C          -4.9179   -0.2709   -0.9753 C.ar    1  UNL1       -0.0561
      4 C          -3.5070   -0.1536   -0.9681 C.ar    1  UNL1       -0.0516
      5 C          -2.7431    0.1505    0.1840 C.ar    1  UNL1        0.0104
      6 C          -1.2796    0.2595    0.1596 C.ar    1  UNL1       -0.0139
      7 C          -0.4994   -0.7599   -0.4042 C.ar    1  UNL1       -0.0281
      8 C           0.8754   -0.5951   -0.4116 C.ar    1  UNL1        0.1019
      9 S           2.0421   -1.7365   -1.0678 S.O2    1  UNL1        0.0262
     10 O           1.8950   -1.7624   -2.5070 O.2     1  UNL1       -0.1643
     11 O           2.0532   -2.9172   -0.2321 O.2     1  UNL1       -0.1643
     12 C          -0.6188    1.3989    0.6839 C.ar    1  UNL1       -0.0533
     13 C           0.7808    1.5353    0.6619 C.ar    1  UNL1       -0.0516
     14 C           1.5472    0.5249    0.1054 C.ar    1  UNL1        0.0092
     15 C           3.0029    0.4418   -0.0328 C.ar    1  UNL1        0.0092
     16 C           3.9688    1.3519    0.3701 C.ar    1  UNL1       -0.0519
     17 C           5.3225    1.0608    0.1354 C.ar    1  UNL1       -0.0582
     18 C           3.4341   -0.7411   -0.6598 C.ar    1  UNL1        0.1016
     19 C           4.7576   -1.0598   -0.9059 C.ar    1  UNL1       -0.0329
     20 C           5.7234   -0.1304   -0.5092 C.ar    1  UNL1       -0.0486
     21 C           7.1824   -0.4217   -0.7114 C.3     1  UNL1       -0.0397
     22 C          -3.5051    0.3332    1.3781 C.ar    1  UNL1        0.1078
     23 N          -3.0278    0.6173    2.6045 N.ar    1  UNL1       -0.1902
     24 S          -4.3285    0.7104    3.6240 S.2     1  UNL1        0.1165
     25 N          -5.5702    0.4069    2.5717 N.ar    1  UNL1       -0.1905
     26 C          -5.0175    0.2047    1.3639 C.ar    1  UNL1        0.1034
     27 H          -7.6156    0.4822   -0.6453 H       1  UNL1        0.0278
     28 H          -7.7060   -0.0758    1.0317 H       1  UNL1        0.0278
     29 H          -7.4720   -1.2538   -0.2687 H       1  UNL1        0.0278
     30 H          -5.4011   -0.5064   -1.9259 H       1  UNL1        0.0621
     31 H          -2.9882   -0.2981   -1.9180 H       1  UNL1        0.0624
     32 H          -0.9439   -1.6615   -0.8156 H       1  UNL1        0.0643
     33 H          -1.2058    2.2058    1.1236 H       1  UNL1        0.0624
     34 H           1.2354    2.4279    1.0813 H       1  UNL1        0.0624
     35 H           3.7004    2.2801    0.8658 H       1  UNL1        0.0624
     36 H           6.0763    1.7765    0.4618 H       1  UNL1        0.0620
     37 H           5.0247   -1.9953   -1.3875 H       1  UNL1        0.0639
     38 H           7.7432    0.5025   -0.8856 H       1  UNL1        0.0278
     39 H           7.3356   -1.0641   -1.5849 H       1  UNL1        0.0278
     40 H           7.5891   -0.9232    0.1720 H       1  UNL1        0.0278
@<TRIPOS>BOND
     1     1     2    1
     2     2     3   ar
     3     3     4   ar
     4     4     5   ar
     5     5     6    1
     6     6     7   ar
     7     7     8   ar
     8     8     9    1
     9     9    10    2
    10     9    11    2
    11     6    12   ar
    12    12    13   ar
    13    13    14   ar
    14    14    15    1
    15    15    16   ar
    16    16    17   ar
    17    15    18   ar
    18    18    19   ar
    19    19    20   ar
    20    20    21    1
    21     5    22   ar
    22    22    23   ar
    23    23    24   ar
    24    24    25   ar
    25    25    26   ar
    26    26     2   ar
    27    14     8   ar
    28    18     9    1
    29    20    17   ar
    30    26    22   ar
    31     1    27    1
    32     1    28    1
    33     1    29    1
    34     3    30    1
    35     4    31    1
    36     7    32    1
    37    12    33    1
    38    13    34    1
    39    16    35    1
    40    17    36    1
    41    19    37    1
    42    21    38    1
    43    21    39    1
    44    21    40    1
