@<TRIPOS>MOLECULE
*****
 38 42 0 0 0
SMALL
GASTEIGER

@<TRIPOS>ATOM
      1 C          -7.1065   -0.5008   -0.3723 C.3     1  UNL1       -0.0376
      2 C          -5.6196   -0.3228   -0.3280 C.ar    1  UNL1       -0.0223
      3 C          -4.9336   -0.3790    0.9053 C.ar    1  UNL1       -0.0561
      4 C          -3.5328   -0.2219    1.0359 C.ar    1  UNL1       -0.0516
      5 C          -2.6569    0.0070   -0.0519 C.ar    1  UNL1        0.0103
      6 C          -1.2084    0.1676    0.1171 C.ar    1  UNL1       -0.0147
      7 C          -0.3009   -0.6269   -0.6036 C.ar    1  UNL1       -0.0396
      8 C           1.0891   -0.4687   -0.4147 C.ar    1  UNL1        0.0211
      9 S           2.3366   -1.3449   -1.2009 S.2     1  UNL1       -0.0882
     10 C          -0.6958    1.1049    1.0180 C.ar    1  UNL1       -0.0533
     11 C           0.6842    1.2609    1.2035 C.ar    1  UNL1       -0.0524
     12 C           1.6070    0.4653    0.4802 C.ar    1  UNL1       -0.0031
     13 C           3.0582    0.4472    0.5037 C.ar    1  UNL1       -0.0031
     14 C           3.9770    1.2185    1.2610 C.ar    1  UNL1       -0.0527
     15 C           5.3568    1.0313    1.1222 C.ar    1  UNL1       -0.0582
     16 C           3.5807   -0.5010   -0.3750 C.ar    1  UNL1        0.0207
     17 C           4.9705   -0.6949   -0.5190 C.ar    1  UNL1       -0.0445
     18 C           5.8592    0.0898    0.2284 C.ar    1  UNL1       -0.0494
     19 C           7.3393   -0.1286    0.1074 C.3     1  UNL1       -0.0397
     20 C          -3.2903    0.0761   -1.3296 C.ar    1  UNL1        0.1078
     21 N          -2.6935    0.2935   -2.5163 N.ar    1  UNL1       -0.1902
     22 S          -3.8807    0.2822   -3.6689 S.2     1  UNL1        0.1165
     23 N          -5.2187    0.0027   -2.7339 N.ar    1  UNL1       -0.1905
     24 C          -4.7930   -0.0919   -1.4629 C.ar    1  UNL1        0.1034
     25 H          -7.5952    0.2745    0.2264 H       1  UNL1        0.0278
     26 H          -7.4939   -0.4322   -1.3931 H       1  UNL1        0.0278
     27 H          -7.3789   -1.4832    0.0263 H       1  UNL1        0.0278
     28 H          -5.5099   -0.5565    1.8155 H       1  UNL1        0.0621
     29 H          -3.1101   -0.2961    2.0398 H       1  UNL1        0.0624
     30 H          -0.6619   -1.3694   -1.3123 H       1  UNL1        0.0635
     31 H          -1.3690    1.7449    1.5859 H       1  UNL1        0.0624
     32 H           1.0451    2.0054    1.9087 H       1  UNL1        0.0624
     33 H           3.6105    1.9647    1.9612 H       1  UNL1        0.0624
     34 H           6.0338    1.6352    1.7230 H       1  UNL1        0.0620
     35 H           5.3437   -1.4478   -1.2090 H       1  UNL1        0.0631
     36 H           7.6644   -0.8910    0.8221 H       1  UNL1        0.0278
     37 H           7.6046   -0.4545   -0.9039 H       1  UNL1        0.0278
     38 H           7.8887    0.7982    0.3037 H       1  UNL1        0.0278
@<TRIPOS>BOND
     1     1     2    1
     2     2     3   ar
     3     3     4   ar
     4     4     5   ar
     5     5     6    1
     6     6     7   ar
     7     7     8   ar
     8     8     9   ar
     9     6    10   ar
    10    10    11   ar
    11    11    12   ar
    12    12    13   ar
    13    13    14   ar
    14    14    15   ar
    15    13    16   ar
    16    16    17   ar
    17    17    18   ar
    18    18    19    1
    19     5    20   ar
    20    20    21   ar
    21    21    22   ar
    22    22    23   ar
    23    23    24   ar
    24    24     2   ar
    25    12     8   ar
    26    16     9   ar
    27    18    15   ar
    28    24    20   ar
    29     1    25    1
    30     1    26    1
    31     1    27    1
    32     3    28    1
    33     4    29    1
    34     7    30    1
    35    10    31    1
    36    11    32    1
    37    14    33    1
    38    15    34    1
    39    17    35    1
    40    19    36    1
    41    19    37    1
    42    19    38    1
