@<TRIPOS>MOLECULE
*****
 29 31 0 0 0
SMALL
GASTEIGER

@<TRIPOS>ATOM
      1 C          -5.0648   -0.6368    0.0815 C.3     1  UNL1       -0.0376
      2 C          -3.5818   -0.4308    0.0317 C.ar    1  UNL1       -0.0223
      3 C          -2.7915   -0.6741    1.1762 C.ar    1  UNL1       -0.0561
      4 C          -1.3859   -0.5081    1.2139 C.ar    1  UNL1       -0.0515
      5 C          -0.6076   -0.0781    0.1128 C.ar    1  UNL1        0.0131
      6 C           0.8494    0.0840    0.1790 C.ar    1  UNL1        0.0223
      7 C           1.4740    1.2758   -0.2322 C.ar    1  UNL1       -0.0508
      8 C           2.8645    1.4352   -0.1611 C.ar    1  UNL1       -0.0554
      9 C           3.6708    0.4081    0.3374 C.ar    1  UNL1       -0.0124
     10 C           5.1608    0.5497    0.3917 C.3     1  UNL1       -0.0369
     11 C           3.0594   -0.7803    0.7390 C.ar    1  UNL1        0.1619
     12 F           3.8131   -1.7881    1.2049 F       1  UNL1       -0.2022
     13 C           1.6761   -0.9384    0.6668 C.ar    1  UNL1        0.1664
     14 F           1.1390   -2.1016    1.0712 F       1  UNL1       -0.2018
     15 C          -1.3500    0.1787   -1.0796 C.ar    1  UNL1        0.1079
     16 N          -0.8558    0.5831   -2.2649 N.ar    1  UNL1       -0.1902
     17 S          -2.1361    0.7182   -3.3056 S.2     1  UNL1        0.1165
     18 N          -3.3892    0.2848   -2.3144 N.ar    1  UNL1       -0.1905
     19 C          -2.8568   -0.0016   -1.1144 C.ar    1  UNL1        0.1034
     20 H          -5.5062   -0.0037    0.8579 H       1  UNL1        0.0278
     21 H          -5.2905   -1.6843    0.3055 H       1  UNL1        0.0278
     22 H          -5.5424   -0.3842   -0.8697 H       1  UNL1        0.0278
     23 H          -3.2849   -1.0129    2.0895 H       1  UNL1        0.0621
     24 H          -0.8813   -0.7284    2.1572 H       1  UNL1        0.0624
     25 H           0.8765    2.1003   -0.6203 H       1  UNL1        0.0625
     26 H           3.3079    2.3695   -0.5008 H       1  UNL1        0.0621
     27 H           5.5565    0.1224    1.3190 H       1  UNL1        0.0278
     28 H           5.6175    0.0384   -0.4614 H       1  UNL1        0.0278
     29 H           5.4592    1.6030    0.3666 H       1  UNL1        0.0278
@<TRIPOS>BOND
     1     1     2    1
     2     2     3   ar
     3     3     4   ar
     4     4     5   ar
     5     5     6    1
     6     6     7   ar
     7     7     8   ar
     8     8     9   ar
     9     9    10    1
    10     9    11   ar
    11    11    12    1
    12     6    13   ar
    13    13    14    1
    14     5    15   ar
    15    15    16   ar
    16    16    17   ar
    17    17    18   ar
    18    18    19   ar
    19    19     2   ar
    20    13    11   ar
    21    19    15   ar
    22     1    20    1
    23     1    21    1
    24     1    22    1
    25     3    23    1
    26     4    24    1
    27     7    25    1
    28     8    26    1
    29    10    27    1
    30    10    28    1
    31    10    29    1
