@<TRIPOS>MOLECULE
*****
 38 43 0 0 0
SMALL
GASTEIGER

@<TRIPOS>ATOM
      1 SI         -1.6294    0.7984   -1.1535 Si      1  UNL1        0.0000
      2 C          -2.5176   -0.4872   -0.1012 C.2     1  UNL1        0.0000
      3 C          -1.6749   -1.2486    0.6249 C.2     1  UNL1        0.0000
      4 C          -0.2554   -0.9007    0.4424 C.ar    1  UNL1        0.0000
      5 C           0.8060   -1.5299    1.0794 C.ar    1  UNL1        0.0000
      6 C           2.1252   -1.1099    0.8269 C.ar    1  UNL1        0.0000
      7 C           3.1923   -1.7431    1.4677 C.ar    1  UNL1        0.0000
      8 C           4.5006   -1.3364    1.2259 C.ar    1  UNL1        0.0000
      9 C           4.7650   -0.2868    0.3373 C.ar    1  UNL1        0.0000
     10 C           6.0840    0.1216    0.0951 C.ar    1  UNL1        0.0000
     11 C           6.3393    1.1620   -0.7862 C.ar    1  UNL1        0.0000
     12 C           5.2604    1.7620   -1.3987 C.ar    1  UNL1        0.0000
     13 N           3.9776    1.3951   -1.1891 N.ar    1  UNL1        0.0000
     14 C           3.7116    0.3792   -0.3306 C.ar    1  UNL1        0.0000
     15 C           2.3870   -0.0407   -0.0794 C.ar    1  UNL1        0.0000
     16 C           1.2904    0.5823   -0.7151 C.ar    1  UNL1        0.0000
     17 C          -0.0090    0.1555   -0.4553 C.ar    1  UNL1        0.0000
     18 C          -3.9234   -0.6305   -0.1072 C.ar    1  UNL1        0.0000
     19 S          -4.6652   -2.1381   -0.5581 S.2     1  UNL1        0.0000
     20 C          -6.2667   -1.5430   -0.3552 C.ar    1  UNL1        0.0000
     21 C          -6.2415   -0.2418    0.0515 C.ar    1  UNL1        0.0000
     22 S          -7.5816    0.8991    0.4323 S.2     1  UNL1        0.0000
     23 C          -6.2983    2.0452    0.7915 C.ar    1  UNL1        0.0000
     24 C          -4.9880    1.5806    0.6262 C.ar    1  UNL1        0.0000
     25 C          -4.9361    0.2314    0.1794 C.ar    1  UNL1        0.0000
     26 H          -1.9228    2.1897   -0.7168 H       1  UNL1        0.0000
     27 H          -1.7642    0.5484   -2.6120 H       1  UNL1        0.0000
     28 H          -1.9728   -2.0468    1.2923 H       1  UNL1        0.0000
     29 H           0.6097   -2.3456    1.7707 H       1  UNL1        0.0000
     30 H           3.0161   -2.5615    2.1628 H       1  UNL1        0.0000
     31 H           5.3132   -1.8470    1.7381 H       1  UNL1        0.0000
     32 H           6.9177   -0.3689    0.5916 H       1  UNL1        0.0000
     33 H           7.3508    1.4937   -0.9884 H       1  UNL1        0.0000
     34 H           5.3970    2.5815   -2.0985 H       1  UNL1        0.0000
     35 H           1.4666    1.4006   -1.4123 H       1  UNL1        0.0000
     36 H          -7.1399   -2.1549   -0.5336 H       1  UNL1        0.0000
     37 H          -6.5975    3.0312    1.1201 H       1  UNL1        0.0000
     38 H          -4.1263    2.2038    0.8318 H       1  UNL1        0.0000
@<TRIPOS>BOND
     1     1     2    1
     2     2     3    2
     3     3     4    1
     4     4     5   ar
     5     5     6   ar
     6     6     7   ar
     7     7     8   ar
     8     8     9   ar
     9     9    10   ar
    10    10    11   ar
    11    11    12   ar
    12    12    13   ar
    13    13    14   ar
    14    14    15   ar
    15    15    16   ar
    16    16    17   ar
    17     2    18    1
    18    18    19   ar
    19    19    20   ar
    20    20    21   ar
    21    21    22   ar
    22    22    23   ar
    23    23    24   ar
    24    24    25   ar
    25    17     1    1
    26    25    18   ar
    27    17     4   ar
    28    25    21   ar
    29    15     6   ar
    30    14     9   ar
    31     1    26    1
    32     1    27    1
    33     3    28    1
    34     5    29    1
    35     7    30    1
    36     8    31    1
    37    10    32    1
    38    11    33    1
    39    12    34    1
    40    16    35    1
    41    20    36    1
    42    23    37    1
    43    24    38    1
