@<TRIPOS>MOLECULE
*****
 40 46 0 0 0
SMALL
GASTEIGER

@<TRIPOS>ATOM
      1 SI         -5.8818    2.1576    0.6248 Si      1  UNL1        0.0000
      2 C          -6.5451    0.4611    0.2177 C.2     1  UNL1        0.0000
      3 C          -5.5383   -0.4112    0.0262 C.ar    1  UNL1        0.0000
      4 C          -5.7099   -1.7992   -0.3463 C.ar    1  UNL1        0.0000
      5 C          -4.6146   -2.5541   -0.5423 C.ar    1  UNL1        0.0000
      6 C          -3.2653   -2.0216   -0.3695 C.ar    1  UNL1        0.0000
      7 C          -3.0054   -0.7408   -0.0047 C.ar    1  UNL1        0.0000
      8 C          -1.6190   -0.3937    0.1704 C.ar    1  UNL1        0.0000
      9 C          -1.0452    0.4210    1.1719 C.ar    1  UNL1        0.0000
     10 C           0.3342    0.4264    0.8969 C.ar    1  UNL1        0.0000
     11 N           1.6062    0.8463    1.2178 N.ar    1  UNL1        0.0000
     12 C           2.5075    0.3144    0.3284 C.ar    1  UNL1        0.0000
     13 C           1.7598   -0.4229   -0.5247 C.ar    1  UNL1        0.0000
     14 O           2.3997   -1.0743   -1.5157 O.2     1  UNL1        0.0000
     15 C           3.7191   -0.7103   -1.2760 C.ar    1  UNL1        0.0000
     16 C           4.8657   -1.0948   -2.0069 C.ar    1  UNL1        0.0000
     17 C           6.1481   -0.6208   -1.6106 C.ar    1  UNL1        0.0000
     18 C           6.1164    0.2116   -0.4863 C.ar    1  UNL1        0.0000
     19 C           7.1873    0.8162    0.1261 C.ar    1  UNL1        0.0000
     20 O           6.7594    1.5593    1.2048 O.2     1  UNL1        0.0000
     21 C           5.3913    1.4311    1.2883 C.ar    1  UNL1        0.0000
     22 C           5.0060    0.6212    0.2718 C.ar    1  UNL1        0.0000
     23 C           3.7775    0.1220   -0.1698 C.ar    1  UNL1        0.0000
     24 C           0.4852   -0.3459   -0.1828 C.ar    1  UNL1        0.0000
     25 O          -0.6177   -0.8929   -0.6808 O.2     1  UNL1        0.0000
     26 C          -4.1683    0.1436    0.1916 C.ar    1  UNL1        0.0000
     27 C          -4.1492    1.4616    0.4828 C.2     1  UNL1        0.0000
     28 H          -6.1788    3.1560   -0.4300 H       1  UNL1        0.0000
     29 H          -6.2030    2.5768    2.0106 H       1  UNL1        0.0000
     30 H          -7.6030    0.2691    0.1368 H       1  UNL1        0.0000
     31 H          -6.7071   -2.2040   -0.4751 H       1  UNL1        0.0000
     32 H          -4.7055   -3.5967   -0.8314 H       1  UNL1        0.0000
     33 H          -2.4571   -2.7317   -0.5330 H       1  UNL1        0.0000
     34 H          -1.5759    0.9117    1.9746 H       1  UNL1        0.0000
     35 H           1.8400    1.4499    1.9948 H       1  UNL1        0.0000
     36 H           4.7621   -1.7497   -2.8669 H       1  UNL1        0.0000
     37 H           7.0503   -0.8925   -2.1444 H       1  UNL1        0.0000
     38 H           8.2539    0.8346   -0.0487 H       1  UNL1        0.0000
     39 H           4.9129    1.9651    2.0954 H       1  UNL1        0.0000
     40 H          -3.2922    2.1005    0.6139 H       1  UNL1        0.0000
@<TRIPOS>BOND
     1     1     2    1
     2     2     3    2
     3     3     4   ar
     4     4     5   ar
     5     5     6   ar
     6     6     7   ar
     7     7     8    1
     8     8     9   ar
     9     9    10   ar
    10    10    11   ar
    11    11    12   ar
    12    12    13   ar
    13    13    14   ar
    14    14    15   ar
    15    15    16   ar
    16    16    17   ar
    17    17    18   ar
    18    18    19   ar
    19    19    20   ar
    20    20    21   ar
    21    21    22   ar
    22    22    23   ar
    23    13    24   ar
    24    24    25   ar
    25     7    26   ar
    26    26    27    2
    27    27     1    1
    28    26     3   ar
    29    25     8   ar
    30    24    10   ar
    31    23    12   ar
    32    23    15   ar
    33    22    18   ar
    34     1    28    1
    35     1    29    1
    36     2    30    1
    37     4    31    1
    38     5    32    1
    39     6    33    1
    40     9    34    1
    41    11    35    1
    42    16    36    1
    43    17    37    1
    44    19    38    1
    45    21    39    1
    46    27    40    1
