@<TRIPOS>MOLECULE
*****
 46 49 0 0 0
SMALL
GASTEIGER

@<TRIPOS>ATOM
      1 C          -7.2128   -2.2821   -1.7115 C.3     1  UNL1       -0.0397
      2 C          -6.1715   -1.3353   -1.1931 C.ar    1  UNL1       -0.0504
      3 C          -6.3016   -0.7621    0.0760 C.ar    1  UNL1       -0.0582
      4 C          -5.3135    0.0944    0.5734 C.ar    1  UNL1       -0.0523
      5 C          -4.1736    0.3940   -0.1873 C.ar    1  UNL1        0.0018
      6 C          -4.0360   -0.2094   -1.4453 C.ar    1  UNL1       -0.0523
      7 C          -5.0231   -1.0650   -1.9438 C.ar    1  UNL1       -0.0582
      8 C          -3.1071    1.2919    0.3172 C.ar    1  UNL1        0.0878
      9 C          -3.4404    2.4565    0.9009 C.ar    1  UNL1        0.0310
     10 N          -2.4735    3.3014    1.3680 N.ar    1  UNL1       -0.3253
     11 C          -1.1363    3.0003    1.2696 C.ar    1  UNL1        0.2749
     12 C          -0.8384    1.6714    0.5452 C.ar    1  UNL1        0.1357
     13 C           0.5733    1.2409    0.3249 C.ar    1  UNL1        0.0057
     14 C           0.8482   -0.1312    0.2529 C.ar    1  UNL1       -0.0518
     15 C           2.1536   -0.5839    0.0335 C.ar    1  UNL1       -0.0519
     16 C           3.2094    0.3220   -0.1377 C.ar    1  UNL1        0.0018
     17 C           2.9267    1.6944   -0.0646 C.ar    1  UNL1       -0.0519
     18 C           1.6200    2.1511    0.1550 C.ar    1  UNL1       -0.0518
     19 C           4.5844   -0.1868   -0.3595 C.ar    1  UNL1        0.0874
     20 C           5.3578    0.3753   -1.3084 C.ar    1  UNL1        0.0309
     21 N           6.6265   -0.0839   -1.5400 N.ar    1  UNL1       -0.3256
     22 C           7.1522   -1.1303   -0.8241 C.ar    1  UNL1        0.2699
     23 C           6.1979   -1.7138    0.2167 C.ar    1  UNL1        0.1030
     24 C           6.7126   -2.8691    1.0232 C.3     1  UNL1       -0.0171
     25 N           4.9938   -1.2561    0.4135 N.ar    1  UNL1       -0.2451
     26 O           8.2751   -1.5795   -0.9842 O.2     1  UNL1       -0.2660
     27 N          -1.8015    0.8942    0.1216 N.ar    1  UNL1       -0.2398
     28 O          -0.2674    3.7235    1.7289 O.2     1  UNL1       -0.2656
     29 H          -7.2715   -2.2378   -2.8041 H       1  UNL1        0.0278
     30 H          -8.2035   -2.0240   -1.3228 H       1  UNL1        0.0278
     31 H          -6.9705   -3.3060   -1.4111 H       1  UNL1        0.0278
     32 H          -7.1706   -0.9841    0.6914 H       1  UNL1        0.0620
     33 H          -5.4371    0.5077    1.5714 H       1  UNL1        0.0624
     34 H          -3.1492   -0.0159   -2.0460 H       1  UNL1        0.0624
     35 H          -4.8836   -1.5210   -2.9214 H       1  UNL1        0.0620
     36 H          -4.4657    2.7866    1.0306 H       1  UNL1        0.0829
     37 H          -2.7149    4.1684    1.8301 H       1  UNL1        0.1685
     38 H           0.0498   -0.8609    0.3749 H       1  UNL1        0.0624
     39 H           2.3429   -1.6553   -0.0038 H       1  UNL1        0.0624
     40 H           3.7224    2.4297   -0.1628 H       1  UNL1        0.0624
     41 H           1.4494    3.2239    0.1835 H       1  UNL1        0.0624
     42 H           5.0289    1.1974   -1.9356 H       1  UNL1        0.0829
     43 H           7.2147    0.3330   -2.2502 H       1  UNL1        0.1684
     44 H           6.9644   -3.6977    0.3560 H       1  UNL1        0.0294
     45 H           7.6052   -2.5616    1.5746 H       1  UNL1        0.0294
     46 H           5.9542   -3.2054    1.7355 H       1  UNL1        0.0294
@<TRIPOS>BOND
     1     1     2    1
     2     2     3   ar
     3     3     4   ar
     4     4     5   ar
     5     5     6   ar
     6     6     7   ar
     7     5     8    1
     8     8     9   ar
     9     9    10   ar
    10    10    11   ar
    11    11    12   ar
    12    12    13    1
    13    13    14   ar
    14    14    15   ar
    15    15    16   ar
    16    16    17   ar
    17    17    18   ar
    18    16    19    1
    19    19    20   ar
    20    20    21   ar
    21    21    22   ar
    22    22    23   ar
    23    23    24    1
    24    23    25   ar
    25    22    26    2
    26    12    27   ar
    27    11    28    2
    28     7     2   ar
    29    27     8   ar
    30    18    13   ar
    31    25    19   ar
    32     1    29    1
    33     1    30    1
    34     1    31    1
    35     3    32    1
    36     4    33    1
    37     6    34    1
    38     7    35    1
    39     9    36    1
    40    10    37    1
    41    14    38    1
    42    15    39    1
    43    17    40    1
    44    18    41    1
    45    20    42    1
    46    21    43    1
    47    24    44    1
    48    24    45    1
    49    24    46    1
