@<TRIPOS>MOLECULE
*****
 46 49 0 0 0
SMALL
GASTEIGER

@<TRIPOS>ATOM
      1 C          -7.5688   -1.7909    0.6770 C.3     1  UNL1       -0.0397
      2 C          -6.4020   -0.8843    0.4225 C.ar    1  UNL1       -0.0504
      3 C          -5.1915   -1.0814    1.0904 C.ar    1  UNL1       -0.0582
      4 C          -4.0938   -0.2548    0.8261 C.ar    1  UNL1       -0.0523
      5 C          -4.1654    0.7896   -0.1134 C.ar    1  UNL1        0.0004
      6 C          -5.3850    0.9572   -0.7931 C.ar    1  UNL1       -0.0523
      7 C          -6.4861    0.1318   -0.5327 C.ar    1  UNL1       -0.0582
      8 C          -2.9934    1.6535   -0.3702 C.ar    1  UNL1        0.0717
      9 N          -1.7814    1.0592   -0.2177 N.ar    1  UNL1       -0.2467
     10 C          -0.6509    1.7814   -0.4315 C.ar    1  UNL1        0.0717
     11 C           0.6189    1.0478   -0.2450 C.ar    1  UNL1        0.0004
     12 C           0.6936   -0.3320   -0.4980 C.ar    1  UNL1       -0.0519
     13 C           1.8880   -1.0494   -0.3335 C.ar    1  UNL1       -0.0519
     14 C           3.0642   -0.4203    0.1026 C.ar    1  UNL1        0.0004
     15 C           2.9891    0.9595    0.3555 C.ar    1  UNL1       -0.0519
     16 C           1.7948    1.6772    0.1908 C.ar    1  UNL1       -0.0519
     17 C           4.3342   -1.1548    0.2894 C.ar    1  UNL1        0.0713
     18 N           5.4676   -0.4315    0.0883 N.ar    1  UNL1       -0.2519
     19 C           6.6665   -1.0435    0.2386 C.ar    1  UNL1        0.0389
     20 C           7.8933   -0.2156    0.0007 C.3     1  UNL1       -0.0223
     21 C           6.7853   -2.3798    0.5978 C.ar    1  UNL1       -0.0406
     22 C           5.6272   -3.1147    0.8134 C.ar    1  UNL1       -0.0581
     23 C           4.3882   -2.4980    0.6595 C.ar    1  UNL1       -0.0357
     24 C          -0.7068    3.1197   -0.8118 C.ar    1  UNL1       -0.0357
     25 C          -1.9468    3.7313   -0.9605 C.ar    1  UNL1       -0.0577
     26 C          -3.1032    2.9930   -0.7342 C.ar    1  UNL1       -0.0357
     27 H          -7.5652   -2.1514    1.7111 H       1  UNL1        0.0278
     28 H          -8.5152   -1.2625    0.5211 H       1  UNL1        0.0278
     29 H          -7.5285   -2.6514    0.0021 H       1  UNL1        0.0278
     30 H          -5.0877   -1.8795    1.8218 H       1  UNL1        0.0620
     31 H          -3.1637   -0.4307    1.3657 H       1  UNL1        0.0624
     32 H          -5.4910    1.7236   -1.5573 H       1  UNL1        0.0624
     33 H          -7.4084    0.2874   -1.0880 H       1  UNL1        0.0620
     34 H          -0.1935   -0.8650   -0.8395 H       1  UNL1        0.0624
     35 H           1.8795   -2.1101   -0.5723 H       1  UNL1        0.0624
     36 H           3.8763    1.4922    0.6964 H       1  UNL1        0.0624
     37 H           1.8034    2.7381    0.4286 H       1  UNL1        0.0624
     38 H           8.4849   -0.6419   -0.8154 H       1  UNL1        0.0292
     39 H           7.6245    0.8098   -0.2729 H       1  UNL1        0.0292
     40 H           8.5052   -0.1770    0.9072 H       1  UNL1        0.0292
     41 H           7.7601   -2.8422    0.7122 H       1  UNL1        0.0635
     42 H           5.6860   -4.1597    1.1035 H       1  UNL1        0.0619
     43 H           3.4838   -3.0667    0.8465 H       1  UNL1        0.0639
     44 H           0.1961    3.6883   -1.0067 H       1  UNL1        0.0639
     45 H          -2.0112    4.7760   -1.2509 H       1  UNL1        0.0619
     46 H          -4.0711    3.4727   -0.8308 H       1  UNL1        0.0639
@<TRIPOS>BOND
     1     1     2    1
     2     2     3   ar
     3     3     4   ar
     4     4     5   ar
     5     5     6   ar
     6     6     7   ar
     7     5     8    1
     8     8     9   ar
     9     9    10   ar
    10    10    11    1
    11    11    12   ar
    12    12    13   ar
    13    13    14   ar
    14    14    15   ar
    15    15    16   ar
    16    14    17    1
    17    17    18   ar
    18    18    19   ar
    19    19    20    1
    20    19    21   ar
    21    21    22   ar
    22    22    23   ar
    23    10    24   ar
    24    24    25   ar
    25    25    26   ar
    26     7     2   ar
    27    26     8   ar
    28    16    11   ar
    29    23    17   ar
    30     1    27    1
    31     1    28    1
    32     1    29    1
    33     3    30    1
    34     4    31    1
    35     6    32    1
    36     7    33    1
    37    12    34    1
    38    13    35    1
    39    15    36    1
    40    16    37    1
    41    20    38    1
    42    20    39    1
    43    20    40    1
    44    21    41    1
    45    22    42    1
    46    23    43    1
    47    24    44    1
    48    25    45    1
    49    26    46    1
