@<TRIPOS>MOLECULE
*****
 48 51 0 0 0
SMALL
GASTEIGER

@<TRIPOS>ATOM
      1 C          -9.4237    0.6451    0.4513 C.3     1  UNL1       -0.0397
      2 C          -7.9339    0.5356    0.3219 C.ar    1  UNL1       -0.0504
      3 C          -7.3626   -0.2521   -0.6800 C.ar    1  UNL1       -0.0582
      4 C          -5.9711   -0.3809   -0.7797 C.ar    1  UNL1       -0.0523
      5 C          -5.1066    0.2681    0.1207 C.ar    1  UNL1        0.0019
      6 C          -5.7044    1.0354    1.1376 C.ar    1  UNL1       -0.0523
      7 C          -7.0937    1.1670    1.2407 C.ar    1  UNL1       -0.0582
      8 C          -3.6357    0.1544    0.0312 C.ar    1  UNL1        0.0912
      9 N          -2.9463    0.3313    1.1895 N.ar    1  UNL1       -0.2287
     10 C          -1.6006    0.2381    1.1455 C.ar    1  UNL1        0.1431
     11 N          -0.9328    0.3809    2.3740 N.pl3   1  UNL1       -0.3414
     12 C          -0.9273   -0.0254   -0.0674 C.ar    1  UNL1        0.1104
     13 C           0.5329   -0.1409   -0.1781 C.ar    1  UNL1        0.0037
     14 C           1.1249   -1.3539   -0.5563 C.ar    1  UNL1       -0.0518
     15 C           2.5175   -1.4827   -0.6534 C.ar    1  UNL1       -0.0519
     16 C           3.3721   -0.3991   -0.3879 C.ar    1  UNL1        0.0019
     17 C           2.7677    0.8163   -0.0185 C.ar    1  UNL1       -0.0519
     18 C           1.3767    0.9479    0.0769 C.ar    1  UNL1       -0.0518
     19 C           4.8418   -0.5069   -0.4824 C.ar    1  UNL1        0.0911
     20 N           5.5557    0.3242    0.3223 N.ar    1  UNL1       -0.2291
     21 C           6.8998    0.2544    0.2663 C.ar    1  UNL1        0.1380
     22 N           7.6037    1.1228    1.1104 N.pl3   1  UNL1       -0.3417
     23 C           7.5434   -0.6480   -0.5969 C.ar    1  UNL1        0.0776
     24 C           9.0376   -0.7387   -0.6675 C.3     1  UNL1       -0.0190
     25 N           6.8501   -1.4809   -1.4136 N.ar    1  UNL1       -0.2546
     26 C           5.5009   -1.3847   -1.3373 C.ar    1  UNL1        0.0540
     27 N          -1.6010   -0.2130   -1.2321 N.ar    1  UNL1       -0.2494
     28 C          -2.9501   -0.1078   -1.1518 C.ar    1  UNL1        0.0544
     29 H          -9.9073    0.5696   -0.5283 H       1  UNL1        0.0278
     30 H          -9.7086    1.6117    0.8800 H       1  UNL1        0.0278
     31 H          -9.8032   -0.1537    1.0958 H       1  UNL1        0.0278
     32 H          -7.9965   -0.7790   -1.3902 H       1  UNL1        0.0620
     33 H          -5.5803   -1.0209   -1.5672 H       1  UNL1        0.0624
     34 H          -5.0777    1.5426    1.8713 H       1  UNL1        0.0624
     35 H          -7.5089    1.7659    2.0483 H       1  UNL1        0.0620
     36 H          -0.2636    1.1420    2.3166 H       1  UNL1        0.1438
     37 H          -0.4024   -0.4663    2.5620 H       1  UNL1        0.1438
     38 H           0.4958   -2.2152   -0.7781 H       1  UNL1        0.0624
     39 H           2.9171   -2.4568   -0.9271 H       1  UNL1        0.0624
     40 H           3.3909    1.6859    0.1923 H       1  UNL1        0.0624
     41 H           0.9612    1.9194    0.3379 H       1  UNL1        0.0624
     42 H           8.1842    0.5881    1.7491 H       1  UNL1        0.1438
     43 H           8.2047    1.7284    0.5602 H       1  UNL1        0.1438
     44 H           9.4636    0.2189   -0.9824 H       1  UNL1        0.0294
     45 H           9.4497   -1.0168    0.3074 H       1  UNL1        0.0294
     46 H           9.3475   -1.4989   -1.3922 H       1  UNL1        0.0294
     47 H           4.9636   -2.0417   -2.0122 H       1  UNL1        0.0851
     48 H          -3.4650   -0.2299   -2.0983 H       1  UNL1        0.0851
@<TRIPOS>BOND
     1     1     2    1
     2     2     3   ar
     3     3     4   ar
     4     4     5   ar
     5     5     6   ar
     6     6     7   ar
     7     5     8    1
     8     8     9   ar
     9     9    10   ar
    10    10    11    1
    11    10    12   ar
    12    12    13    1
    13    13    14   ar
    14    14    15   ar
    15    15    16   ar
    16    16    17   ar
    17    17    18   ar
    18    16    19    1
    19    19    20   ar
    20    20    21   ar
    21    21    22    1
    22    21    23   ar
    23    23    24    1
    24    23    25   ar
    25    25    26   ar
    26    12    27   ar
    27    27    28   ar
    28     7     2   ar
    29    28     8   ar
    30    18    13   ar
    31    26    19   ar
    32     1    29    1
    33     1    30    1
    34     1    31    1
    35     3    32    1
    36     4    33    1
    37     6    34    1
    38     7    35    1
    39    11    36    1
    40    11    37    1
    41    14    38    1
    42    15    39    1
    43    17    40    1
    44    18    41    1
    45    22    42    1
    46    22    43    1
    47    24    44    1
    48    24    45    1
    49    24    46    1
    50    26    47    1
    51    28    48    1
