@<TRIPOS>MOLECULE
*****
 27 29 0 0 0
SMALL
GASTEIGER

@<TRIPOS>ATOM
      1 C          -4.7200   -0.4641    0.0669 C.3     1  UNL1       -0.0397
      2 C          -3.2670   -0.0917    0.0472 C.ar    1  UNL1       -0.0504
      3 C          -2.3975   -0.5731    1.0321 C.ar    1  UNL1       -0.0582
      4 C          -1.0506   -0.1972    1.0347 C.ar    1  UNL1       -0.0508
      5 C          -0.5503    0.6659    0.0515 C.ar    1  UNL1        0.0196
      6 C          -1.4310    1.1739   -0.9110 C.ar    1  UNL1       -0.0508
      7 C          -2.7772    0.7982   -0.9147 C.ar    1  UNL1       -0.0582
      8 C           0.8508    1.0788    0.0325 C.ar    1  UNL1        0.1685
      9 N           1.2791    2.3265   -0.0717 N.ar    1  UNL1       -0.1285
     10 N           2.6539    2.3293   -0.0373 N.ar    1  UNL1       -0.1291
     11 C           3.0521    1.0816    0.0550 C.ar    1  UNL1        0.1613
     12 N           1.9494    0.2372    0.0776 N.ar    1  UNL1       -0.2825
     13 C           2.0626   -1.1558    0.1126 C.ar    1  UNL1        0.0132
     14 C           3.2842   -1.7155    0.1561 C.ar    1  UNL1       -0.0450
     15 C           4.4563   -0.8534    0.1655 C.ar    1  UNL1       -0.0569
     16 C           4.3428    0.4881    0.1143 C.ar    1  UNL1       -0.0170
     17 H          -5.1358   -0.4679   -0.9462 H       1  UNL1        0.0278
     18 H          -4.8598   -1.4691    0.4787 H       1  UNL1        0.0278
     19 H          -5.2812    0.2500    0.6775 H       1  UNL1        0.0278
     20 H          -2.7663   -1.2363    1.8117 H       1  UNL1        0.0620
     21 H          -0.4058   -0.5680    1.8281 H       1  UNL1        0.0625
     22 H          -1.0709    1.8735   -1.6638 H       1  UNL1        0.0625
     23 H          -3.4407    1.2120   -1.6711 H       1  UNL1        0.0620
     24 H           1.1529   -1.7414    0.0908 H       1  UNL1        0.0814
     25 H           3.4233   -2.7915    0.1779 H       1  UNL1        0.0632
     26 H           5.4339   -1.3251    0.2090 H       1  UNL1        0.0619
     27 H           5.2127    1.1351    0.1140 H       1  UNL1        0.0655
@<TRIPOS>BOND
     1     1     2    1
     2     2     3   ar
     3     3     4   ar
     4     4     5   ar
     5     5     6   ar
     6     6     7   ar
     7     5     8    1
     8     8     9   ar
     9     9    10   ar
    10    10    11   ar
    11    11    12   ar
    12    12    13   ar
    13    13    14   ar
    14    14    15   ar
    15    15    16   ar
    16     7     2   ar
    17    12     8   ar
    18    16    11   ar
    19     1    17    1
    20     1    18    1
    21     1    19    1
    22     3    20    1
    23     4    21    1
    24     6    22    1
    25     7    23    1
    26    13    24    1
    27    14    25    1
    28    15    26    1
    29    16    27    1
