@<TRIPOS>MOLECULE
*****
 40 41 0 0 0
SMALL
GASTEIGER

@<TRIPOS>ATOM
      1 C           5.6522   -0.1719   -0.8653 C.3     1  UNL1       -0.0397
      2 C           4.1711   -0.1563   -0.6293 C.ar    1  UNL1       -0.0504
      3 C           3.3115   -0.8688   -1.4727 C.ar    1  UNL1       -0.0583
      4 C           1.9291   -0.8289   -1.2717 C.ar    1  UNL1       -0.0538
      5 C           1.3771   -0.0676   -0.2301 C.ar    1  UNL1       -0.0173
      6 C          -0.0836   -0.0236   -0.0157 C.ar    1  UNL1       -0.0116
      7 C          -0.8705    0.9731   -0.6538 C.ar    1  UNL1       -0.0393
      8 C          -0.2222    1.9910   -1.5714 C.3     1  UNL1       -0.0389
      9 C          -2.2649    1.0512   -0.3995 C.ar    1  UNL1       -0.0438
     10 C          -3.0904    2.1533   -1.0286 C.3     1  UNL1       -0.0392
     11 C          -2.8905    0.0757    0.4162 C.ar    1  UNL1       -0.0441
     12 C          -2.1022   -0.8816    1.1021 C.ar    1  UNL1       -0.0438
     13 C          -2.7542   -1.8411    2.0749 C.3     1  UNL1       -0.0392
     14 C          -0.7076   -0.9623    0.8499 C.ar    1  UNL1       -0.0393
     15 C           0.1160   -2.0256    1.5494 C.3     1  UNL1       -0.0389
     16 C          -4.3940    0.0851    0.5911 C.3     1  UNL1       -0.0392
     17 C           2.2433    0.6559    0.6025 C.ar    1  UNL1       -0.0538
     18 C           3.6258    0.6164    0.4020 C.ar    1  UNL1       -0.0583
     19 H           5.9303    0.6346   -1.5508 H       1  UNL1        0.0278
     20 H           6.1990   -0.0423    0.0746 H       1  UNL1        0.0278
     21 H           5.9692   -1.1277   -1.2956 H       1  UNL1        0.0278
     22 H           3.7111   -1.4614   -2.2924 H       1  UNL1        0.0620
     23 H           1.2760   -1.3935   -1.9337 H       1  UNL1        0.0624
     24 H          -0.8513    2.1809   -2.4475 H       1  UNL1        0.0278
     25 H           0.7355    1.6586   -1.9785 H       1  UNL1        0.0278
     26 H          -0.0584    2.9277   -1.0293 H       1  UNL1        0.0278
     27 H          -3.4818    1.8226   -1.9954 H       1  UNL1        0.0278
     28 H          -3.9231    2.4506   -0.3832 H       1  UNL1        0.0278
     29 H          -2.5102    3.0698   -1.1713 H       1  UNL1        0.0278
     30 H          -2.0716   -2.1397    2.8760 H       1  UNL1        0.0278
     31 H          -3.0983   -2.7347    1.5455 H       1  UNL1        0.0278
     32 H          -3.6008   -1.3773    2.5910 H       1  UNL1        0.0278
     33 H           1.0637   -2.2377    1.0491 H       1  UNL1        0.0278
     34 H          -0.4165   -2.9825    1.5641 H       1  UNL1        0.0278
     35 H           0.3321   -1.7119    2.5756 H       1  UNL1        0.0278
     36 H          -4.6700    0.7201    1.4383 H       1  UNL1        0.0278
     37 H          -4.9035    0.4419   -0.3094 H       1  UNL1        0.0278
     38 H          -4.7886   -0.9232    0.7514 H       1  UNL1        0.0278
     39 H           1.8378    1.2579    1.4130 H       1  UNL1        0.0624
     40 H           4.2731    1.1932    1.0585 H       1  UNL1        0.0620
@<TRIPOS>BOND
     1     1     2    1
     2     2     3   ar
     3     3     4   ar
     4     4     5   ar
     5     5     6    1
     6     6     7   ar
     7     7     8    1
     8     7     9   ar
     9     9    10    1
    10     9    11   ar
    11    11    12   ar
    12    12    13    1
    13    12    14   ar
    14    14    15    1
    15    11    16    1
    16     5    17   ar
    17    17    18   ar
    18    18     2   ar
    19    14     6   ar
    20     1    19    1
    21     1    20    1
    22     1    21    1
    23     3    22    1
    24     4    23    1
    25     8    24    1
    26     8    25    1
    27     8    26    1
    28    10    27    1
    29    10    28    1
    30    10    29    1
    31    13    30    1
    32    13    31    1
    33    13    32    1
    34    15    33    1
    35    15    34    1
    36    15    35    1
    37    16    36    1
    38    16    37    1
    39    16    38    1
    40    17    39    1
    41    18    40    1
