@<TRIPOS>MOLECULE
*****
 39 42 0 0 0
SMALL
GASTEIGER

@<TRIPOS>ATOM
      1 C           7.0485   -0.0349    0.6001 C.3     1  UNL1       -0.0397
      2 C           5.5907   -0.0458    0.2407 C.ar    1  UNL1       -0.0486
      3 C           5.1944    0.0582   -1.1110 C.ar    1  UNL1       -0.0582
      4 C           3.8401    0.0821   -1.4820 C.ar    1  UNL1       -0.0519
      5 C           2.8684    0.0118   -0.4949 C.ar    1  UNL1        0.0092
      6 C           3.2943   -0.0777    0.8426 C.ar    1  UNL1        0.1016
      7 C           4.6182   -0.1032    1.2432 C.ar    1  UNL1       -0.0329
      8 C           1.4107    0.0223   -0.6375 C.ar    1  UNL1        0.0092
      9 C           0.6486    0.0987   -1.7914 C.ar    1  UNL1       -0.0516
     10 C          -0.7538    0.0935   -1.6862 C.ar    1  UNL1       -0.0533
     11 C          -1.4225    0.0119   -0.4383 C.ar    1  UNL1       -0.0132
     12 C          -2.8955    0.0157   -0.3665 C.ar    1  UNL1        0.0201
     13 C          -3.6802   -0.8366   -1.1618 C.ar    1  UNL1        0.1315
     14 F          -3.0952   -1.6954   -2.0115 F       1  UNL1       -0.2048
     15 C          -5.0756   -0.8364   -1.0947 C.ar    1  UNL1       -0.0202
     16 C          -3.5723    0.8788    0.5110 C.ar    1  UNL1       -0.0157
     17 C          -4.9661    0.8795    0.5768 C.ar    1  UNL1        0.1270
     18 F          -5.5694    1.7159    1.4332 F       1  UNL1       -0.2052
     19 C          -5.7357    0.0359   -0.2256 C.ar    1  UNL1       -0.0125
     20 C          -7.2289    0.0351   -0.1127 C.3     1  UNL1       -0.0369
     21 C          -0.6461   -0.0659    0.7270 C.ar    1  UNL1       -0.0281
     22 C           0.7319   -0.0582    0.5895 C.ar    1  UNL1        0.1019
     23 S           1.8951   -0.1453    1.9068 S.O2    1  UNL1        0.0262
     24 O           1.8247    1.0875    2.6607 O.2     1  UNL1       -0.1643
     25 O           1.8233   -1.4638    2.4975 O.2     1  UNL1       -0.1643
     26 H           7.6445   -0.5243   -0.1773 H       1  UNL1        0.0278
     27 H           7.2251   -0.5776    1.5347 H       1  UNL1        0.0278
     28 H           7.3963    0.9958    0.7187 H       1  UNL1        0.0278
     29 H           5.9524    0.1210   -1.8911 H       1  UNL1        0.0620
     30 H           3.5758    0.1580   -2.5325 H       1  UNL1        0.0624
     31 H           4.8805   -0.1662    2.2947 H       1  UNL1        0.0639
     32 H           1.1092    0.1615   -2.7729 H       1  UNL1        0.0624
     33 H          -1.3373    0.1570   -2.6053 H       1  UNL1        0.0624
     34 H          -5.6299   -1.5251   -1.7264 H       1  UNL1        0.0650
     35 H          -3.0273    1.5699    1.1492 H       1  UNL1        0.0653
     36 H          -7.6111    1.0579   -0.0299 H       1  UNL1        0.0278
     37 H          -7.5382   -0.5350    0.7688 H       1  UNL1        0.0278
     38 H          -7.6922   -0.4141   -0.9975 H       1  UNL1        0.0278
     39 H          -1.0956   -0.1425    1.7129 H       1  UNL1        0.0643
@<TRIPOS>BOND
     1     1     2    1
     2     2     3   ar
     3     3     4   ar
     4     4     5   ar
     5     5     6   ar
     6     6     7   ar
     7     5     8    1
     8     8     9   ar
     9     9    10   ar
    10    10    11   ar
    11    11    12    1
    12    12    13   ar
    13    13    14    1
    14    13    15   ar
    15    12    16   ar
    16    16    17   ar
    17    17    18    1
    18    17    19   ar
    19    19    20    1
    20    11    21   ar
    21    21    22   ar
    22    22    23    1
    23    23    24    2
    24    23    25    2
    25     7     2   ar
    26    23     6    1
    27    22     8   ar
    28    19    15   ar
    29     1    26    1
    30     1    27    1
    31     1    28    1
    32     3    29    1
    33     4    30    1
    34     7    31    1
    35     9    32    1
    36    10    33    1
    37    15    34    1
    38    16    35    1
    39    20    36    1
    40    20    37    1
    41    20    38    1
    42    21    39    1
