@<TRIPOS>MOLECULE
*****
 39 42 0 0 0
SMALL
GASTEIGER

@<TRIPOS>ATOM
      1 C           7.0667   -0.1169    0.6106 C.3     1  UNL1       -0.0397
      2 C           5.5912   -0.2711    0.3789 C.ar    1  UNL1       -0.0486
      3 C           5.1158   -1.2357   -0.5368 C.ar    1  UNL1       -0.0582
      4 C           3.7449   -1.3870   -0.8020 C.ar    1  UNL1       -0.0519
      5 C           2.8370   -0.5615   -0.1556 C.ar    1  UNL1        0.0092
      6 C           3.3421    0.3978    0.7404 C.ar    1  UNL1        0.1016
      7 C           4.6845    0.5744    1.0244 C.ar    1  UNL1       -0.0329
      8 C           1.3773   -0.5319   -0.2711 C.ar    1  UNL1        0.0092
      9 C           0.5483   -1.3262   -1.0454 C.ar    1  UNL1       -0.0516
     10 C          -0.8422   -1.1201   -0.9924 C.ar    1  UNL1       -0.0532
     11 C          -1.4343   -0.1253   -0.1719 C.ar    1  UNL1       -0.0103
     12 C          -2.8988    0.0575   -0.1395 C.ar    1  UNL1        0.0583
     13 C          -3.4881    1.3253   -0.2628 C.ar    1  UNL1        0.1692
     14 F          -2.7160    2.4115   -0.4260 F       1  UNL1       -0.2017
     15 C          -4.8750    1.4967   -0.2306 C.ar    1  UNL1        0.1648
     16 F          -5.3839    2.7323   -0.3443 F       1  UNL1       -0.2021
     17 C          -3.7752   -1.0267    0.0222 C.ar    1  UNL1        0.1692
     18 F          -3.2874   -2.2697    0.1650 F       1  UNL1       -0.2017
     19 C          -5.1617   -0.8518    0.0538 C.ar    1  UNL1        0.1648
     20 F          -5.9516   -1.9225    0.2221 F       1  UNL1       -0.2021
     21 C          -5.7348    0.4103   -0.0852 C.ar    1  UNL1        0.0256
     22 C          -7.2167    0.5998   -0.0159 C.3     1  UNL1       -0.0341
     23 C          -0.5884    0.6772    0.6082 C.ar    1  UNL1       -0.0280
     24 C           0.7760    0.4499    0.5329 C.ar    1  UNL1        0.1019
     25 S           2.0140    1.3265    1.4254 S.O2    1  UNL1        0.0262
     26 O           1.8896    0.9935    2.8277 O.2     1  UNL1       -0.1643
     27 O           2.0815    2.6776    0.9134 O.2     1  UNL1       -0.1643
     28 H           7.5763   -1.0827    0.5294 H       1  UNL1        0.0278
     29 H           7.2665    0.2724    1.6144 H       1  UNL1        0.0278
     30 H           7.4907    0.5718   -0.1266 H       1  UNL1        0.0278
     31 H           5.8240   -1.8825   -1.0537 H       1  UNL1        0.0620
     32 H           3.4188   -2.1437   -1.5094 H       1  UNL1        0.0624
     33 H           5.0098    1.3405    1.7215 H       1  UNL1        0.0639
     34 H           0.9481   -2.1042   -1.6892 H       1  UNL1        0.0624
     35 H          -1.4745   -1.7569   -1.6121 H       1  UNL1        0.0624
     36 H          -7.5256    0.7650    1.0209 H       1  UNL1        0.0279
     37 H          -7.7438   -0.2772   -0.4059 H       1  UNL1        0.0279
     38 H          -7.5318    1.4576   -0.6193 H       1  UNL1        0.0279
     39 H          -0.9735    1.4561    1.2608 H       1  UNL1        0.0643
@<TRIPOS>BOND
     1     1     2    1
     2     2     3   ar
     3     3     4   ar
     4     4     5   ar
     5     5     6   ar
     6     6     7   ar
     7     5     8    1
     8     8     9   ar
     9     9    10   ar
    10    10    11   ar
    11    11    12    1
    12    12    13   ar
    13    13    14    1
    14    13    15   ar
    15    15    16    1
    16    12    17   ar
    17    17    18    1
    18    17    19   ar
    19    19    20    1
    20    19    21   ar
    21    21    22    1
    22    11    23   ar
    23    23    24   ar
    24    24    25    1
    25    25    26    2
    26    25    27    2
    27     7     2   ar
    28    25     6    1
    29    24     8   ar
    30    21    15   ar
    31     1    28    1
    32     1    29    1
    33     1    30    1
    34     3    31    1
    35     4    32    1
    36     7    33    1
    37     9    34    1
    38    10    35    1
    39    22    36    1
    40    22    37    1
    41    22    38    1
    42    23    39    1
