@<TRIPOS>MOLECULE
*****
 47 50 0 0 0
SMALL
GASTEIGER

@<TRIPOS>ATOM
      1 C           7.6696    1.0081    1.0721 C.3     1  UNL1       -0.0397
      2 C           6.2408    0.5951    0.8668 C.ar    1  UNL1       -0.0486
      3 C           5.8666   -0.7584    1.0179 C.ar    1  UNL1       -0.0582
      4 C           4.5345   -1.1761    0.8636 C.ar    1  UNL1       -0.0519
      5 C           3.5615   -0.2338    0.5653 C.ar    1  UNL1        0.0092
      6 C           3.9631    1.1076    0.4342 C.ar    1  UNL1        0.1016
      7 C           5.2646    1.5535    0.5799 C.ar    1  UNL1       -0.0329
      8 C           2.1239   -0.4288    0.3633 C.ar    1  UNL1        0.0092
      9 C           1.3893   -1.6032    0.4154 C.ar    1  UNL1       -0.0516
     10 C           0.0040   -1.5524    0.1844 C.ar    1  UNL1       -0.0532
     11 C          -0.6674   -0.3378   -0.1015 C.ar    1  UNL1       -0.0124
     12 C          -2.1242   -0.3246   -0.3334 C.ar    1  UNL1        0.0273
     13 C          -2.6818    0.0266   -1.5807 C.ar    1  UNL1        0.1282
     14 O          -1.7894    0.3391   -2.5760 O.3     1  UNL1       -0.4945
     15 C          -2.3125    0.7677   -3.8257 C.3     1  UNL1        0.0788
     16 C          -4.0716    0.0226   -1.7426 C.ar    1  UNL1       -0.0130
     17 C          -2.9886   -0.6684    0.7263 C.ar    1  UNL1       -0.0085
     18 C          -4.3765   -0.6681    0.5648 C.ar    1  UNL1        0.1238
     19 O          -5.2807   -0.9877    1.5436 O.3     1  UNL1       -0.4948
     20 C          -4.7699   -1.2814    2.8375 C.3     1  UNL1        0.0788
     21 C          -4.9237   -0.3229   -0.6800 C.ar    1  UNL1       -0.0053
     22 C          -6.4143   -0.3163   -0.8873 C.3     1  UNL1       -0.0361
     23 C           0.0754    0.8487   -0.1516 C.ar    1  UNL1       -0.0280
     24 C           1.4367    0.7644    0.0791 C.ar    1  UNL1        0.1019
     25 S           2.5655    2.1126    0.0666 S.O2    1  UNL1        0.0262
     26 O           2.6949    2.6016   -1.2888 O.2     1  UNL1       -0.1643
     27 O           2.2926    2.9547    1.2112 O.2     1  UNL1       -0.1643
     28 H           8.3538    0.2181    0.7450 H       1  UNL1        0.0278
     29 H           7.8494    1.2181    2.1308 H       1  UNL1        0.0278
     30 H           7.9056    1.9042    0.4885 H       1  UNL1        0.0278
     31 H           6.6245   -1.5030    1.2591 H       1  UNL1        0.0620
     32 H           4.2875   -2.2268    0.9825 H       1  UNL1        0.0624
     33 H           5.5070    2.6063    0.4728 H       1  UNL1        0.0639
     34 H           1.8608   -2.5585    0.6247 H       1  UNL1        0.0624
     35 H          -0.5642   -2.4818    0.2144 H       1  UNL1        0.0624
     36 H          -2.8832   -0.0321   -4.3086 H       1  UNL1        0.0660
     37 H          -1.4666    1.0109   -4.4759 H       1  UNL1        0.0660
     38 H          -2.9159    1.6745   -3.7127 H       1  UNL1        0.0660
     39 H          -4.5226    0.2826   -2.6949 H       1  UNL1        0.0658
     40 H          -2.5409   -0.9266    1.6815 H       1  UNL1        0.0661
     41 H          -4.2258   -0.4262    3.2518 H       1  UNL1        0.0660
     42 H          -4.1440   -2.1796    2.8193 H       1  UNL1        0.0660
     43 H          -5.6213   -1.4833    3.4945 H       1  UNL1        0.0660
     44 H          -6.8875    0.4030   -0.2111 H       1  UNL1        0.0279
     45 H          -6.8268   -1.3140   -0.7052 H       1  UNL1        0.0279
     46 H          -6.6779   -0.0313   -1.9112 H       1  UNL1        0.0279
     47 H          -0.3944    1.8031   -0.3700 H       1  UNL1        0.0643
@<TRIPOS>BOND
     1     1     2    1
     2     2     3   ar
     3     3     4   ar
     4     4     5   ar
     5     5     6   ar
     6     6     7   ar
     7     5     8    1
     8     8     9   ar
     9     9    10   ar
    10    10    11   ar
    11    11    12    1
    12    12    13   ar
    13    13    14    1
    14    14    15    1
    15    13    16   ar
    16    12    17   ar
    17    17    18   ar
    18    18    19    1
    19    19    20    1
    20    18    21   ar
    21    21    22    1
    22    11    23   ar
    23    23    24   ar
    24    24    25    1
    25    25    26    2
    26    25    27    2
    27     7     2   ar
    28    25     6    1
    29    24     8   ar
    30    21    16   ar
    31     1    28    1
    32     1    29    1
    33     1    30    1
    34     3    31    1
    35     4    32    1
    36     7    33    1
    37     9    34    1
    38    10    35    1
    39    15    36    1
    40    15    37    1
    41    15    38    1
    42    16    39    1
    43    17    40    1
    44    20    41    1
    45    20    42    1
    46    20    43    1
    47    22    44    1
    48    22    45    1
    49    22    46    1
    50    23    47    1
