@<TRIPOS>MOLECULE
*****
 46 49 0 0 0
SMALL
GASTEIGER

@<TRIPOS>ATOM
      1 C           8.0630    0.2576   -0.8936 C.3     1  UNL1       -0.0397
      2 C           6.6013    0.3922   -0.5776 C.ar    1  UNL1       -0.0486
      3 C           6.1546    1.4230    0.2786 C.ar    1  UNL1       -0.0582
      4 C           4.7996    1.5607    0.6214 C.ar    1  UNL1       -0.0519
      5 C           3.8796    0.6555    0.1139 C.ar    1  UNL1        0.0092
      6 C           4.3569   -0.3677   -0.7252 C.ar    1  UNL1        0.1016
      7 C           5.6831   -0.5330   -1.0824 C.ar    1  UNL1       -0.0329
      8 C           2.4322    0.5971    0.3309 C.ar    1  UNL1        0.0092
      9 C           1.6302    1.4346    1.0887 C.ar    1  UNL1       -0.0516
     10 C           0.2483    1.1845    1.1509 C.ar    1  UNL1       -0.0532
     11 C          -0.3572    0.1008    0.4666 C.ar    1  UNL1       -0.0128
     12 C          -1.8126   -0.1233    0.5453 C.ar    1  UNL1        0.0220
     13 C          -2.5844   -0.1346   -0.6289 C.ar    1  UNL1       -0.0456
     14 C          -3.9691   -0.3404   -0.5862 C.ar    1  UNL1       -0.0173
     15 C          -4.5435   -0.4950    0.6767 C.ar    1  UNL1        0.1525
     16 C          -6.0100   -0.6972    0.8730 C.2     1  UNL1        0.3578
     17 O          -6.6932    0.2573    0.1861 O.3     1  UNL1       -0.4634
     18 C          -8.1090    0.1847    0.3568 C.3     1  UNL1        0.0820
     19 O          -6.5035   -1.5662    1.5743 O.2     1  UNL1       -0.2432
     20 N          -3.8253   -0.5095    1.8318 N.ar    1  UNL1       -0.2250
     21 C          -4.7550   -0.3600   -1.8621 C.3     1  UNL1       -0.0374
     22 C          -2.4955   -0.3345    1.7532 C.ar    1  UNL1        0.1248
     23 N          -1.8391   -0.3470    2.9848 N.pl3   1  UNL1       -0.3426
     24 C           0.4565   -0.7449   -0.2997 C.ar    1  UNL1       -0.0280
     25 C           1.8129   -0.4706   -0.3408 C.ar    1  UNL1        0.1019
     26 S           3.0189   -1.3903   -1.2328 S.O2    1  UNL1        0.0262
     27 O           2.7891   -1.1909   -2.6472 O.2     1  UNL1       -0.1643
     28 O           3.1592   -2.6869   -0.6070 O.2     1  UNL1       -0.1643
     29 H           8.2100   -0.2144   -1.8707 H       1  UNL1        0.0278
     30 H           8.5449    1.2402   -0.9318 H       1  UNL1        0.0278
     31 H           8.5560   -0.3506   -0.1292 H       1  UNL1        0.0278
     32 H           6.8731    2.1330    0.6870 H       1  UNL1        0.0620
     33 H           4.4953    2.3693    1.2793 H       1  UNL1        0.0624
     34 H           5.9881   -1.3502   -1.7287 H       1  UNL1        0.0639
     35 H           2.0439    2.2781    1.6337 H       1  UNL1        0.0624
     36 H          -0.3731    1.8518    1.7502 H       1  UNL1        0.0624
     37 H          -2.0969    0.0261   -1.5900 H       1  UNL1        0.0628
     38 H          -8.5618    0.9923   -0.2250 H       1  UNL1        0.0661
     39 H          -8.3768    0.3238    1.4090 H       1  UNL1        0.0661
     40 H          -8.4918   -0.7693   -0.0190 H       1  UNL1        0.0661
     41 H          -4.1069   -0.5697   -2.7203 H       1  UNL1        0.0278
     42 H          -5.2345    0.6093   -2.0290 H       1  UNL1        0.0278
     43 H          -5.5148   -1.1480   -1.8446 H       1  UNL1        0.0278
     44 H          -2.5333   -0.5864    3.6896 H       1  UNL1        0.1437
     45 H          -1.0606   -0.9970    2.9831 H       1  UNL1        0.1437
     46 H           0.0511   -1.5942   -0.8421 H       1  UNL1        0.0643
@<TRIPOS>BOND
     1     1     2    1
     2     2     3   ar
     3     3     4   ar
     4     4     5   ar
     5     5     6   ar
     6     6     7   ar
     7     5     8    1
     8     8     9   ar
     9     9    10   ar
    10    10    11   ar
    11    11    12    1
    12    12    13   ar
    13    13    14   ar
    14    14    15   ar
    15    15    16    1
    16    16    17    1
    17    17    18    1
    18    16    19    2
    19    15    20   ar
    20    14    21    1
    21    12    22   ar
    22    22    23    1
    23    11    24   ar
    24    24    25   ar
    25    25    26    1
    26    26    27    2
    27    26    28    2
    28     7     2   ar
    29    26     6    1
    30    25     8   ar
    31    22    20   ar
    32     1    29    1
    33     1    30    1
    34     1    31    1
    35     3    32    1
    36     4    33    1
    37     7    34    1
    38     9    35    1
    39    10    36    1
    40    13    37    1
    41    18    38    1
    42    18    39    1
    43    18    40    1
    44    21    41    1
    45    21    42    1
    46    21    43    1
    47    23    44    1
    48    23    45    1
    49    24    46    1
