@<TRIPOS>MOLECULE
*****
 39 42 0 0 0
SMALL
GASTEIGER

@<TRIPOS>ATOM
      1 C          -7.0639    0.4467   -0.2582 C.3     1  UNL1       -0.0397
      2 C          -5.5957    0.1360   -0.2096 C.ar    1  UNL1       -0.0486
      3 C          -5.1600   -1.1942   -0.0199 C.ar    1  UNL1       -0.0582
      4 C          -3.7959   -1.5182    0.0609 C.ar    1  UNL1       -0.0519
      5 C          -2.8543   -0.5048   -0.0382 C.ar    1  UNL1        0.0092
      6 C          -3.3196    0.8110   -0.2134 C.ar    1  UNL1        0.1016
      7 C          -4.6543    1.1654   -0.2966 C.ar    1  UNL1       -0.0329
      8 C          -1.3938   -0.5983    0.0190 C.ar    1  UNL1        0.0092
      9 C          -0.5979   -1.7200    0.1815 C.ar    1  UNL1       -0.0516
     10 C           0.8001   -1.5685    0.2091 C.ar    1  UNL1       -0.0533
     11 C           1.4311   -0.3056    0.0748 C.ar    1  UNL1       -0.0132
     12 C           2.9007   -0.1837    0.1162 C.ar    1  UNL1        0.0203
     13 C           3.5222    0.7707    0.9438 C.ar    1  UNL1       -0.0509
     14 C           4.9168    0.8984    0.9921 C.ar    1  UNL1       -0.0554
     15 C           3.7347   -1.0023   -0.6603 C.ar    1  UNL1        0.1663
     16 F           3.2018   -1.9234   -1.4802 F       1  UNL1       -0.2018
     17 C           5.1222   -0.8755   -0.6117 C.ar    1  UNL1        0.1619
     18 F           5.8828   -1.6726   -1.3778 F       1  UNL1       -0.2022
     19 C           5.7315    0.0658    0.2193 C.ar    1  UNL1       -0.0124
     20 C           7.2226    0.2076    0.2365 C.3     1  UNL1       -0.0369
     21 C           0.6205    0.8267   -0.0915 C.ar    1  UNL1       -0.0281
     22 C          -0.7521    0.6441   -0.1130 C.ar    1  UNL1        0.1019
     23 S          -1.9534    1.9155   -0.3031 S.O2    1  UNL1        0.0262
     24 O          -1.9401    2.7368    0.8880 O.2     1  UNL1       -0.1643
     25 O          -1.8631    2.4366   -1.6494 O.2     1  UNL1       -0.1643
     26 H          -7.4450    0.6095    0.7546 H       1  UNL1        0.0278
     27 H          -7.6206   -0.3756   -0.7198 H       1  UNL1        0.0278
     28 H          -7.2543    1.3440   -0.8563 H       1  UNL1        0.0278
     29 H          -5.8944   -1.9945    0.0656 H       1  UNL1        0.0620
     30 H          -3.5007   -2.5538    0.2017 H       1  UNL1        0.0624
     31 H          -4.9479    2.2026   -0.4254 H       1  UNL1        0.0639
     32 H          -1.0286   -2.7114    0.2871 H       1  UNL1        0.0624
     33 H           1.4099   -2.4631    0.3407 H       1  UNL1        0.0624
     34 H           2.9198    1.4248    1.5734 H       1  UNL1        0.0625
     35 H           5.3580    1.6522    1.6419 H       1  UNL1        0.0621
     36 H           7.5599    0.7326    1.1365 H       1  UNL1        0.0278
     37 H           7.7046   -0.7757    0.2345 H       1  UNL1        0.0278
     38 H           7.5558    0.7716   -0.6401 H       1  UNL1        0.0278
     39 H           1.0403    1.8210   -0.2129 H       1  UNL1        0.0643
@<TRIPOS>BOND
     1     1     2    1
     2     2     3   ar
     3     3     4   ar
     4     4     5   ar
     5     5     6   ar
     6     6     7   ar
     7     5     8    1
     8     8     9   ar
     9     9    10   ar
    10    10    11   ar
    11    11    12    1
    12    12    13   ar
    13    13    14   ar
    14    12    15   ar
    15    15    16    1
    16    15    17   ar
    17    17    18    1
    18    17    19   ar
    19    19    20    1
    20    11    21   ar
    21    21    22   ar
    22    22    23    1
    23    23    24    2
    24    23    25    2
    25     7     2   ar
    26    23     6    1
    27    22     8   ar
    28    19    14   ar
    29     1    26    1
    30     1    27    1
    31     1    28    1
    32     3    29    1
    33     4    30    1
    34     7    31    1
    35     9    32    1
    36    10    33    1
    37    13    34    1
    38    14    35    1
    39    20    36    1
    40    20    37    1
    41    20    38    1
    42    21    39    1
