@<TRIPOS>MOLECULE
*****
 43 49 0 0 0
SMALL
GASTEIGER

@<TRIPOS>ATOM
      1 SI         -4.5686    2.6845    0.2900 Si      1  UNL1        0.0000
      2 C          -5.4661    1.1435    0.8642 C.2     1  UNL1        0.0000
      3 C          -4.6265    0.0923    0.8992 C.ar    1  UNL1        0.0000
      4 C          -4.9869   -1.2544    1.2936 C.ar    1  UNL1        0.0000
      5 C          -4.0389   -2.2101    1.2770 C.ar    1  UNL1        0.0000
      6 C          -2.6612   -1.9315    0.8751 C.ar    1  UNL1        0.0000
      7 C          -2.2439   -0.7009    0.4922 C.ar    1  UNL1        0.0000
      8 C          -0.8224   -0.5368    0.1080 C.ar    1  UNL1        0.0000
      9 C           0.0798   -0.2389    1.1472 C.ar    1  UNL1        0.0000
     10 C           1.4325   -0.0672    0.8386 C.ar    1  UNL1        0.0000
     11 N           2.4808    0.2265    1.6961 N.ar    1  UNL1        0.0000
     12 C           3.5745    0.2875    0.9175 C.ar    1  UNL1        0.0000
     13 C           4.8612    0.5471    1.2849 C.ar    1  UNL1        0.0000
     14 S           5.4405    0.8651    2.8292 S.2     1  UNL1        0.0000
     15 C           7.0226    1.0156    2.1252 C.ar    1  UNL1        0.0000
     16 C           7.0701    0.8228    0.7508 C.ar    1  UNL1        0.0000
     17 C           5.7663    0.5427    0.2607 C.ar    1  UNL1        0.0000
     18 S           4.8458    0.1873   -1.1671 S.2     1  UNL1        0.0000
     19 C           3.3127    0.0545   -0.3932 C.ar    1  UNL1        0.0000
     20 C           1.9076   -0.1836   -0.4870 C.ar    1  UNL1        0.0000
     21 C           0.9914   -0.4802   -1.5345 C.ar    1  UNL1        0.0000
     22 C           1.4550   -0.5953   -2.8630 C.ar    1  UNL1        0.0000
     23 C           0.5707   -0.8818   -3.9010 C.ar    1  UNL1        0.0000
     24 C          -0.7806   -1.0561   -3.6294 C.ar    1  UNL1        0.0000
     25 C          -1.2513   -0.9454   -2.3180 C.ar    1  UNL1        0.0000
     26 C          -0.3858   -0.6569   -1.2366 C.ar    1  UNL1        0.0000
     27 C          -3.2308    0.3835    0.4907 C.ar    1  UNL1        0.0000
     28 C          -3.0087    1.6667    0.1416 C.2     1  UNL1        0.0000
     29 H          -4.4807    3.7114    1.3566 H       1  UNL1        0.0000
     30 H          -5.0659    3.1664   -1.0215 H       1  UNL1        0.0000
     31 H          -6.5139    1.1581    1.1165 H       1  UNL1        0.0000
     32 H          -6.0057   -1.4718    1.5927 H       1  UNL1        0.0000
     33 H          -4.2771   -3.2292    1.5656 H       1  UNL1        0.0000
     34 H          -1.9748   -2.7745    0.8941 H       1  UNL1        0.0000
     35 H          -0.2727   -0.1415    2.1710 H       1  UNL1        0.0000
     36 H           2.4550    0.3691    2.6981 H       1  UNL1        0.0000
     37 H           7.8531    1.2440    2.7798 H       1  UNL1        0.0000
     38 H           7.9698    0.8796    0.1526 H       1  UNL1        0.0000
     39 H           2.5069   -0.4622   -3.1009 H       1  UNL1        0.0000
     40 H           0.9382   -0.9677   -4.9200 H       1  UNL1        0.0000
     41 H          -1.4747   -1.2783   -4.4356 H       1  UNL1        0.0000
     42 H          -2.3170   -1.0867   -2.1469 H       1  UNL1        0.0000
     43 H          -2.0800    2.1028   -0.1914 H       1  UNL1        0.0000
@<TRIPOS>BOND
     1     1     2    1
     2     2     3    2
     3     3     4   ar
     4     4     5   ar
     5     5     6   ar
     6     6     7   ar
     7     7     8    1
     8     8     9   ar
     9     9    10   ar
    10    10    11   ar
    11    11    12   ar
    12    12    13   ar
    13    13    14   ar
    14    14    15   ar
    15    15    16   ar
    16    16    17   ar
    17    17    18   ar
    18    18    19   ar
    19    19    20   ar
    20    20    21   ar
    21    21    22   ar
    22    22    23   ar
    23    23    24   ar
    24    24    25   ar
    25    25    26   ar
    26     7    27   ar
    27    27    28    2
    28    28     1    1
    29    27     3   ar
    30    26     8   ar
    31    20    10   ar
    32    26    21   ar
    33    19    12   ar
    34    17    13   ar
    35     1    29    1
    36     1    30    1
    37     2    31    1
    38     4    32    1
    39     5    33    1
    40     6    34    1
    41     9    35    1
    42    11    36    1
    43    15    37    1
    44    16    38    1
    45    22    39    1
    46    23    40    1
    47    24    41    1
    48    25    42    1
    49    28    43    1
