@<TRIPOS>MOLECULE
*****
 43 47 0 0 0
SMALL
GASTEIGER

@<TRIPOS>ATOM
      1 C           7.4514    0.3658    0.4993 C.3     1  UNL1       -0.0397
      2 C           5.9994    0.0940    0.2308 C.ar    1  UNL1       -0.0486
      3 C           5.6107   -0.5677   -0.9549 C.ar    1  UNL1       -0.0582
      4 C           4.2601   -0.8108   -1.2540 C.ar    1  UNL1       -0.0519
      5 C           3.2840   -0.3813   -0.3671 C.ar    1  UNL1        0.0092
      6 C           3.7018    0.2863    0.7980 C.ar    1  UNL1        0.1016
      7 C           5.0219    0.5428    1.1234 C.ar    1  UNL1       -0.0329
      8 C           1.8290   -0.5172   -0.4645 C.ar    1  UNL1        0.0092
      9 C           1.0756   -1.1138   -1.4632 C.ar    1  UNL1       -0.0516
     10 C          -0.3252   -1.1271   -1.3465 C.ar    1  UNL1       -0.0533
     11 C          -0.9964   -0.5492   -0.2392 C.ar    1  UNL1       -0.0139
     12 C          -2.4720   -0.5897   -0.1499 C.ar    1  UNL1        0.0096
     13 C          -3.1124   -1.8411   -0.1250 C.ar    1  UNL1       -0.0516
     14 C          -4.4952   -1.9309   -0.0378 C.ar    1  UNL1       -0.0561
     15 C          -3.2415    0.5894   -0.0850 C.ar    1  UNL1        0.0971
     16 N          -2.6449    1.8079   -0.1127 N.ar    1  UNL1       -0.2513
     17 C          -3.4369    2.8960   -0.0461 C.ar    1  UNL1        0.0464
     18 C          -4.8039    2.7944    0.0431 C.ar    1  UNL1        0.0464
     19 N          -5.4308    1.6014    0.0683 N.ar    1  UNL1       -0.2517
     20 C          -4.6588    0.4925    0.0045 C.ar    1  UNL1        0.0926
     21 C          -5.2676   -0.7676    0.0264 C.ar    1  UNL1       -0.0230
     22 C          -6.7663   -0.8785    0.1231 C.3     1  UNL1       -0.0376
     23 C          -0.2315    0.0516    0.7699 C.ar    1  UNL1       -0.0281
     24 C           1.1444    0.0503    0.6240 C.ar    1  UNL1        0.1019
     25 S           2.2977    0.7419    1.7572 S.O2    1  UNL1        0.0262
     26 O           2.1743    2.1831    1.7330 O.2     1  UNL1       -0.1643
     27 O           2.2916   -0.0537    2.9660 O.2     1  UNL1       -0.1643
     28 H           7.7461    1.3124    0.0363 H       1  UNL1        0.0278
     29 H           8.0783   -0.4371    0.0975 H       1  UNL1        0.0278
     30 H           7.6463    0.4225    1.5754 H       1  UNL1        0.0278
     31 H           6.3715   -0.9008   -1.6600 H       1  UNL1        0.0620
     32 H           4.0016   -1.3260   -2.1742 H       1  UNL1        0.0624
     33 H           5.2768    1.0714    2.0367 H       1  UNL1        0.0639
     34 H           1.5431   -1.5649   -2.3331 H       1  UNL1        0.0624
     35 H          -0.9070   -1.5868   -2.1452 H       1  UNL1        0.0624
     36 H          -2.5255   -2.7575   -0.1616 H       1  UNL1        0.0624
     37 H          -4.9663   -2.9114   -0.0159 H       1  UNL1        0.0621
     38 H          -2.9336    3.8554   -0.0665 H       1  UNL1        0.0845
     39 H          -5.4395    3.6701    0.0971 H       1  UNL1        0.0845
     40 H          -7.2400   -0.3858   -0.7323 H       1  UNL1        0.0278
     41 H          -7.1220   -0.4205    1.0518 H       1  UNL1        0.0278
     42 H          -7.0926   -1.9241    0.1239 H       1  UNL1        0.0278
     43 H          -0.6957    0.5145    1.6360 H       1  UNL1        0.0643
@<TRIPOS>BOND
     1     1     2    1
     2     2     3   ar
     3     3     4   ar
     4     4     5   ar
     5     5     6   ar
     6     6     7   ar
     7     5     8    1
     8     8     9   ar
     9     9    10   ar
    10    10    11   ar
    11    11    12    1
    12    12    13   ar
    13    13    14   ar
    14    12    15   ar
    15    15    16   ar
    16    16    17   ar
    17    17    18   ar
    18    18    19   ar
    19    15    20   ar
    20    20    21   ar
    21    21    22    1
    22    11    23   ar
    23    23    24   ar
    24    24    25    1
    25    25    26    2
    26    25    27    2
    27     7     2   ar
    28    25     6    1
    29    24     8   ar
    30    21    14   ar
    31    20    19   ar
    32     1    28    1
    33     1    29    1
    34     1    30    1
    35     3    31    1
    36     4    32    1
    37     7    33    1
    38     9    34    1
    39    10    35    1
    40    13    36    1
    41    14    37    1
    42    17    38    1
    43    18    39    1
    44    22    40    1
    45    22    41    1
    46    22    42    1
    47    23    43    1
