@<TRIPOS>MOLECULE
*****
 50 55 0 0 0
SMALL
GASTEIGER

@<TRIPOS>ATOM
      1 C          -8.5970   -1.5579    0.6395 C.3     1  UNL1       -0.0397
      2 C          -7.1685   -1.0954    0.6353 C.ar    1  UNL1       -0.0486
      3 C          -6.5276   -0.7665    1.8503 C.ar    1  UNL1       -0.0582
      4 C          -5.1838   -0.3599    1.8879 C.ar    1  UNL1       -0.0519
      5 C          -4.4664   -0.2894    0.7031 C.ar    1  UNL1        0.0092
      6 C          -5.1284   -0.6359   -0.4887 C.ar    1  UNL1        0.1016
      7 C          -6.4492   -1.0406   -0.5619 C.ar    1  UNL1       -0.0329
      8 C          -3.0699    0.1011    0.4959 C.ar    1  UNL1        0.0092
      9 C          -2.1291    0.5007    1.4315 C.ar    1  UNL1       -0.0516
     10 C          -0.8338    0.8343    0.9985 C.ar    1  UNL1       -0.0533
     11 C          -0.4556    0.7771   -0.3662 C.ar    1  UNL1       -0.0160
     12 C           0.9104    1.1366   -0.7818 C.ar    1  UNL1       -0.0171
     13 C           1.1215    2.1580   -1.7412 C.ar    1  UNL1       -0.0522
     14 C           2.4051    2.5200   -2.1502 C.ar    1  UNL1       -0.0353
     15 C           2.0256    0.4667   -0.2293 C.ar    1  UNL1       -0.0444
     16 C           3.3128    0.8118   -0.6254 C.ar    1  UNL1        0.0098
     17 C           4.5914    0.2470   -0.1845 C.ar    1  UNL1        0.0094
     18 C           5.7045    0.8466   -0.8007 C.ar    1  UNL1        0.1013
     19 C           7.0175    0.4977   -0.5497 C.ar    1  UNL1       -0.0356
     20 C           7.2321   -0.5218    0.3754 C.ar    1  UNL1       -0.0570
     21 C           6.1474   -1.1662    1.0105 C.ar    1  UNL1       -0.0498
     22 C           6.4102   -2.2412    2.0275 C.3     1  UNL1       -0.0397
     23 C           4.8238   -0.7680    0.7350 C.ar    1  UNL1       -0.0492
     24 C           3.4580    1.8349   -1.5776 C.ar    1  UNL1        0.1013
     25 S           5.1656    2.0963   -1.9156 S.O2    1  UNL1        0.0262
     26 O           5.5466    3.3865   -1.3833 O.2     1  UNL1       -0.1643
     27 O           5.4395    1.6610   -3.2675 O.2     1  UNL1       -0.1643
     28 C          -1.4081    0.3733   -1.3107 C.ar    1  UNL1       -0.0281
     29 C          -2.6734    0.0503   -0.8514 C.ar    1  UNL1        0.1019
     30 S          -4.0228   -0.4800   -1.8483 S.O2    1  UNL1        0.0262
     31 O          -4.4497    0.6318   -2.6694 O.2     1  UNL1       -0.1643
     32 O          -3.7251   -1.8008   -2.3577 O.2     1  UNL1       -0.1643
     33 H          -9.1646   -1.0607    1.4331 H       1  UNL1        0.0278
     34 H          -8.6389   -2.6400    0.7970 H       1  UNL1        0.0278
     35 H          -9.0883   -1.3192   -0.3096 H       1  UNL1        0.0278
     36 H          -7.0834   -0.8266    2.7855 H       1  UNL1        0.0620
     37 H          -4.7288   -0.1107    2.8418 H       1  UNL1        0.0624
     38 H          -6.8994   -1.3020   -1.5147 H       1  UNL1        0.0639
     39 H          -2.3724    0.5653    2.4879 H       1  UNL1        0.0624
     40 H          -0.1075    1.1595    1.7436 H       1  UNL1        0.0624
     41 H           0.2687    2.6861   -2.1673 H       1  UNL1        0.0624
     42 H           2.5685    3.3041   -2.8821 H       1  UNL1        0.0637
     43 H           1.8700   -0.3271    0.4972 H       1  UNL1        0.0630
     44 H           7.8421    0.9963   -1.0479 H       1  UNL1        0.0637
     45 H           8.2533   -0.8219    0.6059 H       1  UNL1        0.0621
     46 H           7.3252   -2.7920    1.7857 H       1  UNL1        0.0278
     47 H           5.5906   -2.9671    2.0488 H       1  UNL1        0.0278
     48 H           6.5158   -1.7963    3.0217 H       1  UNL1        0.0278
     49 H           3.9971   -1.2587    1.2416 H       1  UNL1        0.0627
     50 H          -1.1716    0.3030   -2.3686 H       1  UNL1        0.0643
@<TRIPOS>BOND
     1     1     2    1
     2     2     3   ar
     3     3     4   ar
     4     4     5   ar
     5     5     6   ar
     6     6     7   ar
     7     5     8    1
     8     8     9   ar
     9     9    10   ar
    10    10    11   ar
    11    11    12    1
    12    12    13   ar
    13    13    14   ar
    14    12    15   ar
    15    15    16   ar
    16    16    17    1
    17    17    18   ar
    18    18    19   ar
    19    19    20   ar
    20    20    21   ar
    21    21    22    1
    22    21    23   ar
    23    16    24   ar
    24    24    25    1
    25    25    26    2
    26    25    27    2
    27    11    28   ar
    28    28    29   ar
    29    29    30    1
    30    30    31    2
    31    30    32    2
    32     7     2   ar
    33    30     6    1
    34    29     8   ar
    35    24    14   ar
    36    23    17   ar
    37    25    18    1
    38     1    33    1
    39     1    34    1
    40     1    35    1
    41     3    36    1
    42     4    37    1
    43     7    38    1
    44     9    39    1
    45    10    40    1
    46    13    41    1
    47    14    42    1
    48    15    43    1
    49    19    44    1
    50    20    45    1
    51    22    46    1
    52    22    47    1
    53    22    48    1
    54    23    49    1
    55    28    50    1
