@<TRIPOS>MOLECULE
*****
 39 42 0 0 0
SMALL
GASTEIGER

@<TRIPOS>ATOM
      1 C          -7.0765    0.2217    0.2093 C.3     1  UNL1       -0.0397
      2 C          -5.5986   -0.0192    0.0990 C.ar    1  UNL1       -0.0486
      3 C          -5.1155   -1.2888   -0.2881 C.ar    1  UNL1       -0.0582
      4 C          -3.7400   -1.5595   -0.3720 C.ar    1  UNL1       -0.0519
      5 C          -2.8342   -0.5575   -0.0571 C.ar    1  UNL1        0.0092
      6 C          -3.3459    0.6917    0.3377 C.ar    1  UNL1        0.1016
      7 C          -4.6931    0.9922    0.4316 C.ar    1  UNL1       -0.0329
      8 C          -1.3703   -0.6050   -0.0678 C.ar    1  UNL1        0.0092
      9 C          -0.5355   -1.6592   -0.4012 C.ar    1  UNL1       -0.0516
     10 C           0.8569   -1.4748   -0.3372 C.ar    1  UNL1       -0.0533
     11 C           1.4402   -0.2448    0.0585 C.ar    1  UNL1       -0.0159
     12 C           2.9032   -0.0910    0.1146 C.ar    1  UNL1       -0.0151
     13 C           3.7072   -0.3945   -0.9978 C.ar    1  UNL1       -0.0536
     14 C           5.0990   -0.2492   -0.9501 C.ar    1  UNL1       -0.0555
     15 C           3.5382    0.3679    1.2777 C.ar    1  UNL1       -0.0185
     16 C           4.9240    0.5088    1.3195 C.ar    1  UNL1        0.1269
     17 F           5.4924    0.9557    2.4488 F       1  UNL1       -0.2052
     18 C           5.7222    0.1948    0.2192 C.ar    1  UNL1       -0.0152
     19 C           7.2063    0.3856    0.2814 C.3     1  UNL1       -0.0370
     20 C           0.5932    0.8194    0.3960 C.ar    1  UNL1       -0.0281
     21 C          -0.7726    0.6058    0.3213 C.ar    1  UNL1        0.1019
     22 S          -2.0188    1.7909    0.6930 S.O2    1  UNL1        0.0262
     23 O          -1.9982    2.0477    2.1165 O.2     1  UNL1       -0.1643
     24 O          -1.9888    2.8231   -0.3201 O.2     1  UNL1       -0.1643
     25 H          -7.3145    1.2771    0.0403 H       1  UNL1        0.0278
     26 H          -7.4284   -0.0651    1.2050 H       1  UNL1        0.0278
     27 H          -7.6225   -0.3588   -0.5417 H       1  UNL1        0.0278
     28 H          -5.8215   -2.0828   -0.5295 H       1  UNL1        0.0620
     29 H          -3.4084   -2.5474   -0.6776 H       1  UNL1        0.0624
     30 H          -5.0228    1.9761    0.7509 H       1  UNL1        0.0639
     31 H          -0.9329   -2.6226   -0.7067 H       1  UNL1        0.0624
     32 H           1.5014   -2.3168   -0.5905 H       1  UNL1        0.0624
     33 H           3.2499   -0.7351   -1.9255 H       1  UNL1        0.0624
     34 H           5.6883   -0.4830   -1.8342 H       1  UNL1        0.0621
     35 H           2.9666    0.6139    2.1685 H       1  UNL1        0.0652
     36 H           7.5996    0.0509    1.2470 H       1  UNL1        0.0278
     37 H           7.4549    1.4420    0.1406 H       1  UNL1        0.0278
     38 H           7.7129   -0.1977   -0.4948 H       1  UNL1        0.0278
     39 H           0.9826    1.7877    0.6970 H       1  UNL1        0.0643
@<TRIPOS>BOND
     1     1     2    1
     2     2     3   ar
     3     3     4   ar
     4     4     5   ar
     5     5     6   ar
     6     6     7   ar
     7     5     8    1
     8     8     9   ar
     9     9    10   ar
    10    10    11   ar
    11    11    12    1
    12    12    13   ar
    13    13    14   ar
    14    12    15   ar
    15    15    16   ar
    16    16    17    1
    17    16    18   ar
    18    18    19    1
    19    11    20   ar
    20    20    21   ar
    21    21    22    1
    22    22    23    2
    23    22    24    2
    24     7     2   ar
    25    22     6    1
    26    21     8   ar
    27    18    14   ar
    28     1    25    1
    29     1    26    1
    30     1    27    1
    31     3    28    1
    32     4    29    1
    33     7    30    1
    34     9    31    1
    35    10    32    1
    36    13    33    1
    37    14    34    1
    38    15    35    1
    39    19    36    1
    40    19    37    1
    41    19    38    1
    42    20    39    1
