@<TRIPOS>MOLECULE
*****
 50 55 0 0 0
SMALL
GASTEIGER

@<TRIPOS>ATOM
      1 C           9.2419   -0.0757   -0.1482 C.3     1  UNL1       -0.0397
      2 C           7.7594    0.1503   -0.0737 C.ar    1  UNL1       -0.0486
      3 C           7.2519    1.4505    0.1430 C.ar    1  UNL1       -0.0582
      4 C           5.8730    1.6951    0.2485 C.ar    1  UNL1       -0.0519
      5 C           4.9890    0.6313    0.1471 C.ar    1  UNL1        0.0092
      6 C           5.5254   -0.6532   -0.0552 C.ar    1  UNL1        0.1016
      7 C           6.8766   -0.9297   -0.1632 C.ar    1  UNL1       -0.0329
      8 C           3.5264    0.6408    0.2268 C.ar    1  UNL1        0.0092
      9 C           2.6711    1.7134    0.4195 C.ar    1  UNL1       -0.0516
     10 C           1.2848    1.4826    0.4660 C.ar    1  UNL1       -0.0533
     11 C           0.7272    0.1869    0.3218 C.ar    1  UNL1       -0.0160
     12 C          -0.7311   -0.0159    0.3785 C.ar    1  UNL1       -0.0160
     13 C          -1.2948   -0.9845    1.2472 C.ar    1  UNL1       -0.0533
     14 C          -2.6814   -1.2037    1.3295 C.ar    1  UNL1       -0.0516
     15 C          -1.5934    0.7443   -0.4232 C.ar    1  UNL1       -0.0281
     16 C          -2.9529    0.5045   -0.3179 C.ar    1  UNL1        0.1019
     17 S          -4.2146    1.3387   -1.2167 S.O2    1  UNL1        0.0262
     18 O          -4.1184    0.9552   -2.6081 O.2     1  UNL1       -0.1643
     19 O          -4.2754    2.7080   -0.7536 O.2     1  UNL1       -0.1643
     20 C          -3.5307   -0.4493    0.5366 C.ar    1  UNL1        0.0092
     21 C          -4.9923   -0.4936    0.4503 C.ar    1  UNL1        0.0092
     22 C          -5.5222    0.4301   -0.4686 C.ar    1  UNL1        0.1016
     23 C          -6.8709    0.5839   -0.7355 C.ar    1  UNL1       -0.0329
     24 C          -7.7593   -0.2327   -0.0301 C.ar    1  UNL1       -0.0486
     25 C          -7.2569   -1.1796    0.8898 C.ar    1  UNL1       -0.0582
     26 C          -5.8802   -1.3093    1.1356 C.ar    1  UNL1       -0.0519
     27 C          -9.2355   -0.1475   -0.2909 C.3     1  UNL1       -0.0397
     28 C           1.5955   -0.8956    0.1255 C.ar    1  UNL1       -0.0281
     29 C           2.9546   -0.6347    0.0854 C.ar    1  UNL1        0.1019
     30 S           4.2230   -1.8325   -0.1424 S.O2    1  UNL1        0.0262
     31 O           4.1418   -2.3367   -1.4957 O.2     1  UNL1       -0.1643
     32 O           4.2755   -2.6712    1.0354 O.2     1  UNL1       -0.1643
     33 H           9.7440    0.7837   -0.6049 H       1  UNL1        0.0278
     34 H           9.4738   -0.9518   -0.7629 H       1  UNL1        0.0278
     35 H           9.6470   -0.2314    0.8563 H       1  UNL1        0.0278
     36 H           7.9411    2.2899    0.2306 H       1  UNL1        0.0620
     37 H           5.5221    2.7101    0.4101 H       1  UNL1        0.0624
     38 H           7.2266   -1.9465   -0.3122 H       1  UNL1        0.0639
     39 H           3.0479    2.7251    0.5383 H       1  UNL1        0.0624
     40 H           0.6268    2.3362    0.6310 H       1  UNL1        0.0624
     41 H          -0.6417   -1.5779    1.8875 H       1  UNL1        0.0624
     42 H          -3.0630   -1.9559    2.0137 H       1  UNL1        0.0624
     43 H          -1.2208    1.4926   -1.1167 H       1  UNL1        0.0643
     44 H          -7.2148    1.3114   -1.4642 H       1  UNL1        0.0639
     45 H          -7.9483   -1.8290    1.4257 H       1  UNL1        0.0620
     46 H          -5.5338   -2.0469    1.8534 H       1  UNL1        0.0624
     47 H          -9.8047   -0.3744    0.6167 H       1  UNL1        0.0278
     48 H          -9.5191    0.8614   -0.6084 H       1  UNL1        0.0278
     49 H          -9.5180   -0.8573   -1.0744 H       1  UNL1        0.0278
     50 H           1.2278   -1.9094   -0.0034 H       1  UNL1        0.0643
@<TRIPOS>BOND
     1     1     2    1
     2     2     3   ar
     3     3     4   ar
     4     4     5   ar
     5     5     6   ar
     6     6     7   ar
     7     5     8    1
     8     8     9   ar
     9     9    10   ar
    10    10    11   ar
    11    11    12    1
    12    12    13   ar
    13    13    14   ar
    14    12    15   ar
    15    15    16   ar
    16    16    17    1
    17    17    18    2
    18    17    19    2
    19    16    20   ar
    20    20    21    1
    21    21    22   ar
    22    22    23   ar
    23    23    24   ar
    24    24    25   ar
    25    25    26   ar
    26    24    27    1
    27    11    28   ar
    28    28    29   ar
    29    29    30    1
    30    30    31    2
    31    30    32    2
    32     7     2   ar
    33    30     6    1
    34    29     8   ar
    35    20    14   ar
    36    22    17    1
    37    26    21   ar
    38     1    33    1
    39     1    34    1
    40     1    35    1
    41     3    36    1
    42     4    37    1
    43     7    38    1
    44     9    39    1
    45    10    40    1
    46    13    41    1
    47    14    42    1
    48    15    43    1
    49    23    44    1
    50    25    45    1
    51    26    46    1
    52    27    47    1
    53    27    48    1
    54    27    49    1
    55    28    50    1
