@<TRIPOS>MOLECULE
*****
 48 53 0 0 0
SMALL
GASTEIGER

@<TRIPOS>ATOM
      1 C          -9.0655    0.2658    0.2358 C.3     1  UNL1       -0.0397
      2 C          -7.5925    0.1878   -0.0449 C.ar    1  UNL1       -0.0486
      3 C          -7.1347   -0.0662   -1.3567 C.ar    1  UNL1       -0.0582
      4 C          -5.7658   -0.1763   -1.6509 C.ar    1  UNL1       -0.0519
      5 C          -4.8419   -0.0420   -0.6252 C.ar    1  UNL1        0.0092
      6 C          -5.3293    0.1970    0.6723 C.ar    1  UNL1        0.1016
      7 C          -6.6692    0.3106    0.9973 C.ar    1  UNL1       -0.0329
      8 C          -3.3806   -0.1196   -0.6883 C.ar    1  UNL1        0.0092
      9 C          -2.5668   -0.3412   -1.7875 C.ar    1  UNL1       -0.0516
     10 C          -1.1727   -0.3783   -1.6091 C.ar    1  UNL1       -0.0533
     11 C          -0.5668   -0.1966   -0.3403 C.ar    1  UNL1       -0.0160
     12 C           0.8980   -0.2450   -0.1928 C.ar    1  UNL1       -0.0167
     13 C           1.4982   -1.1009    0.7338 C.ar    1  UNL1       -0.0534
     14 C           2.8903   -1.1545    0.8804 C.ar    1  UNL1       -0.0524
     15 C           1.7257    0.5708   -0.9826 C.ar    1  UNL1       -0.0397
     16 C           3.1281    0.5149   -0.8322 C.ar    1  UNL1        0.0211
     17 S           4.2891    1.4301   -1.7018 S.2     1  UNL1       -0.0882
     18 C           3.7348   -0.3365    0.0891 C.ar    1  UNL1       -0.0031
     19 C           5.1814   -0.2207    0.0636 C.ar    1  UNL1       -0.0031
     20 C           5.6116    0.7164   -0.8749 C.ar    1  UNL1        0.0207
     21 C           6.9801    0.9959   -1.0730 C.ar    1  UNL1       -0.0445
     22 C           7.9409    0.3272   -0.3023 C.ar    1  UNL1       -0.0494
     23 C           7.5319   -0.6230    0.6292 C.ar    1  UNL1       -0.0582
     24 C           6.1729   -0.8962    0.8206 C.ar    1  UNL1       -0.0527
     25 C           9.4013    0.5923   -0.5255 C.3     1  UNL1       -0.0397
     26 C          -1.3927    0.0281    0.7694 C.ar    1  UNL1       -0.0281
     27 C          -2.7607    0.0590    0.5601 C.ar    1  UNL1        0.1019
     28 S          -3.9828    0.3210    1.7981 S.O2    1  UNL1        0.0262
     29 O          -4.0031   -0.8307    2.6735 O.2     1  UNL1       -0.1643
     30 O          -3.8877    1.6893    2.2576 O.2     1  UNL1       -0.1643
     31 H          -9.4609   -0.7344    0.4372 H       1  UNL1        0.0278
     32 H          -9.6018    0.6953   -0.6168 H       1  UNL1        0.0278
     33 H          -9.2654    0.9062    1.1013 H       1  UNL1        0.0278
     34 H          -7.8552   -0.1800   -2.1659 H       1  UNL1        0.0620
     35 H          -5.4535   -0.3675   -2.6732 H       1  UNL1        0.0624
     36 H          -6.9802    0.4886    2.0221 H       1  UNL1        0.0639
     37 H          -2.9818   -0.4898   -2.7800 H       1  UNL1        0.0624
     38 H          -0.5452   -0.5658   -2.4807 H       1  UNL1        0.0624
     39 H           0.8863   -1.7538    1.3545 H       1  UNL1        0.0624
     40 H           3.3216   -1.8350    1.6105 H       1  UNL1        0.0624
     41 H           1.2925    1.2592   -1.7047 H       1  UNL1        0.0635
     42 H           7.2814    1.7282   -1.8181 H       1  UNL1        0.0631
     43 H           8.2669   -1.1640    1.2218 H       1  UNL1        0.0620
     44 H           5.8798   -1.6383    1.5589 H       1  UNL1        0.0624
     45 H           9.5666    1.6283   -0.8395 H       1  UNL1        0.0278
     46 H           9.9720    0.4382    0.3964 H       1  UNL1        0.0278
     47 H           9.7893   -0.0784   -1.2983 H       1  UNL1        0.0278
     48 H          -0.9844    0.1846    1.7637 H       1  UNL1        0.0643
@<TRIPOS>BOND
     1     1     2    1
     2     2     3   ar
     3     3     4   ar
     4     4     5   ar
     5     5     6   ar
     6     6     7   ar
     7     5     8    1
     8     8     9   ar
     9     9    10   ar
    10    10    11   ar
    11    11    12    1
    12    12    13   ar
    13    13    14   ar
    14    12    15   ar
    15    15    16   ar
    16    16    17   ar
    17    16    18   ar
    18    18    19   ar
    19    19    20   ar
    20    20    21   ar
    21    21    22   ar
    22    22    23   ar
    23    23    24   ar
    24    22    25    1
    25    11    26   ar
    26    26    27   ar
    27    27    28    1
    28    28    29    2
    29    28    30    2
    30     7     2   ar
    31    28     6    1
    32    27     8   ar
    33    18    14   ar
    34    20    17   ar
    35    24    19   ar
    36     1    31    1
    37     1    32    1
    38     1    33    1
    39     3    34    1
    40     4    35    1
    41     7    36    1
    42     9    37    1
    43    10    38    1
    44    13    39    1
    45    14    40    1
    46    15    41    1
    47    21    42    1
    48    23    43    1
    49    24    44    1
    50    25    45    1
    51    25    46    1
    52    25    47    1
    53    26    48    1
