@<TRIPOS>MOLECULE
*****
 39 42 0 0 0
SMALL
GASTEIGER

@<TRIPOS>ATOM
      1 C           7.0715   -0.2313    0.0815 C.3     1  UNL1       -0.0397
      2 C           5.5902   -0.2505   -0.1631 C.ar    1  UNL1       -0.0486
      3 C           5.0915   -0.4357   -1.4715 C.ar    1  UNL1       -0.0582
      4 C           3.7134   -0.4286   -1.7425 C.ar    1  UNL1       -0.0519
      5 C           2.8213   -0.2248   -0.7003 C.ar    1  UNL1        0.0092
      6 C           3.3490   -0.0301    0.5888 C.ar    1  UNL1        0.1016
      7 C           4.6991   -0.0305    0.8910 C.ar    1  UNL1       -0.0329
      8 C           1.3580   -0.1736   -0.7393 C.ar    1  UNL1        0.0092
      9 C           0.5102   -0.3215   -1.8251 C.ar    1  UNL1       -0.0516
     10 C          -0.8784   -0.2308   -1.6247 C.ar    1  UNL1       -0.0533
     11 C          -1.4448    0.0080   -0.3473 C.ar    1  UNL1       -0.0160
     12 C          -2.9043    0.0995   -0.1772 C.ar    1  UNL1       -0.0178
     13 C          -3.7523   -0.9228   -0.6315 C.ar    1  UNL1       -0.0538
     14 C          -5.1390   -0.8372   -0.4689 C.ar    1  UNL1       -0.0583
     15 C          -3.4922    1.2134    0.4425 C.ar    1  UNL1       -0.0538
     16 C          -4.8786    1.3019    0.6052 C.ar    1  UNL1       -0.0583
     17 C          -5.7118    0.2708    0.1621 C.ar    1  UNL1       -0.0504
     18 C          -7.2005    0.3792    0.3077 C.3     1  UNL1       -0.0397
     19 C          -0.5846    0.1570    0.7488 C.ar    1  UNL1       -0.0281
     20 C           0.7770    0.0615    0.5184 C.ar    1  UNL1        0.1019
     21 S           2.0373    0.2155    1.7358 S.O2    1  UNL1        0.0262
     22 O           2.0721    1.5883    2.1911 O.2     1  UNL1       -0.1643
     23 O           1.9722   -0.9310    2.6156 O.2     1  UNL1       -0.1643
     24 H           7.4610    0.7809   -0.0640 H       1  UNL1        0.0278
     25 H           7.3039   -0.5566    1.1010 H       1  UNL1        0.0278
     26 H           7.5877   -0.9129   -0.6026 H       1  UNL1        0.0278
     27 H           5.7868   -0.5888   -2.2962 H       1  UNL1        0.0620
     28 H           3.3692   -0.5788   -2.7614 H       1  UNL1        0.0624
     29 H           5.0416    0.1335    1.9080 H       1  UNL1        0.0639
     30 H           0.8943   -0.5018   -2.8247 H       1  UNL1        0.0624
     31 H          -1.5341   -0.3362   -2.4892 H       1  UNL1        0.0624
     32 H          -3.3361   -1.8070   -1.1099 H       1  UNL1        0.0624
     33 H          -5.7669   -1.6463   -0.8352 H       1  UNL1        0.0620
     34 H          -2.8717    2.0352    0.7950 H       1  UNL1        0.0624
     35 H          -5.3011    2.1841    1.0813 H       1  UNL1        0.0620
     36 H          -7.6275    0.8727   -0.5707 H       1  UNL1        0.0278
     37 H          -7.4648    0.9551    1.2009 H       1  UNL1        0.0278
     38 H          -7.6558   -0.6111    0.4140 H       1  UNL1        0.0278
     39 H          -0.9632    0.3313    1.7519 H       1  UNL1        0.0643
@<TRIPOS>BOND
     1     1     2    1
     2     2     3   ar
     3     3     4   ar
     4     4     5   ar
     5     5     6   ar
     6     6     7   ar
     7     5     8    1
     8     8     9   ar
     9     9    10   ar
    10    10    11   ar
    11    11    12    1
    12    12    13   ar
    13    13    14   ar
    14    12    15   ar
    15    15    16   ar
    16    16    17   ar
    17    17    18    1
    18    11    19   ar
    19    19    20   ar
    20    20    21    1
    21    21    22    2
    22    21    23    2
    23     7     2   ar
    24    21     6    1
    25    20     8   ar
    26    17    14   ar
    27     1    24    1
    28     1    25    1
    29     1    26    1
    30     3    27    1
    31     4    28    1
    32     7    29    1
    33     9    30    1
    34    10    31    1
    35    13    32    1
    36    14    33    1
    37    15    34    1
    38    16    35    1
    39    18    36    1
    40    18    37    1
    41    18    38    1
    42    19    39    1
