@<TRIPOS>MOLECULE
*****
 50 55 0 0 0
SMALL
GASTEIGER

@<TRIPOS>ATOM
      1 C          -9.1846   -0.1636   -0.5171 C.3     1  UNL1       -0.0397
      2 C          -7.6928   -0.3140   -0.5964 C.ar    1  UNL1       -0.0486
      3 C          -7.1278   -1.5007   -1.1137 C.ar    1  UNL1       -0.0582
      4 C          -5.7373   -1.6890   -1.1744 C.ar    1  UNL1       -0.0519
      5 C          -4.8993   -0.6883   -0.7054 C.ar    1  UNL1        0.0092
      6 C          -5.4921    0.4757   -0.1841 C.ar    1  UNL1        0.1016
      7 C          -6.8561    0.6939   -0.1087 C.ar    1  UNL1       -0.0329
      8 C          -3.4354   -0.6596   -0.6637 C.ar    1  UNL1        0.0092
      9 C          -2.5331   -1.6213   -1.0890 C.ar    1  UNL1       -0.0516
     10 C          -1.1560   -1.3743   -0.9509 C.ar    1  UNL1       -0.0533
     11 C          -0.6558   -0.1721   -0.3910 C.ar    1  UNL1       -0.0160
     12 C           0.7943    0.0516   -0.2655 C.ar    1  UNL1       -0.0175
     13 C           1.3960    1.2048   -0.8257 C.ar    1  UNL1       -0.0534
     14 C           2.7727    1.4456   -0.7234 C.ar    1  UNL1       -0.0532
     15 C           1.6067   -0.8744    0.4128 C.ar    1  UNL1       -0.0500
     16 C           2.9685   -0.6286    0.5109 C.ar    1  UNL1       -0.0348
     17 C           3.5538    0.5231   -0.0527 C.ar    1  UNL1       -0.0141
     18 C           4.9766    0.4998    0.2124 C.ar    1  UNL1       -0.0141
     19 C           5.9754    1.3957   -0.1249 C.ar    1  UNL1       -0.0535
     20 C           7.2872    1.1123    0.2733 C.ar    1  UNL1       -0.0582
     21 C           5.2821   -0.6674    0.9437 C.ar    1  UNL1       -0.0351
     22 C           4.0246   -1.4749    1.1928 C.3     1  UNL1       -0.0012
     23 C           6.5775   -0.9565    1.3427 C.ar    1  UNL1       -0.0548
     24 C           7.5981   -0.0614    0.9932 C.ar    1  UNL1       -0.0501
     25 C           9.0101   -0.3179    1.4345 C.3     1  UNL1       -0.0397
     26 C          -1.5703    0.7987    0.0385 C.ar    1  UNL1       -0.0281
     27 C          -2.9189    0.5245   -0.1104 C.ar    1  UNL1        0.1019
     28 S          -4.2401    1.5892    0.3536 S.O2    1  UNL1        0.0262
     29 O          -4.2346    2.7386   -0.5249 O.2     1  UNL1       -0.1643
     30 O          -4.2826    1.6699    1.7974 O.2     1  UNL1       -0.1643
     31 H          -9.6722   -0.6748   -1.3538 H       1  UNL1        0.0278
     32 H          -9.4747    0.8912   -0.5674 H       1  UNL1        0.0278
     33 H          -9.5534   -0.5873    0.4219 H       1  UNL1        0.0278
     34 H          -7.7803   -2.2939   -1.4770 H       1  UNL1        0.0620
     35 H          -5.3415   -2.6138   -1.5834 H       1  UNL1        0.0624
     36 H          -7.2501    1.6134    0.3130 H       1  UNL1        0.0639
     37 H          -2.8660   -2.5567   -1.5288 H       1  UNL1        0.0624
     38 H          -0.4561   -2.1332   -1.3010 H       1  UNL1        0.0624
     39 H           0.7830    1.9275   -1.3627 H       1  UNL1        0.0624
     40 H           3.2057    2.3369   -1.1647 H       1  UNL1        0.0624
     41 H           1.1800   -1.7640    0.8668 H       1  UNL1        0.0627
     42 H           5.7568    2.3008   -0.6809 H       1  UNL1        0.0624
     43 H           8.0772    1.8164    0.0186 H       1  UNL1        0.0620
     44 H           4.0964   -2.4587    0.7202 H       1  UNL1        0.0362
     45 H           3.8226   -1.5556    2.2648 H       1  UNL1        0.0362
     46 H           6.7919   -1.8556    1.9120 H       1  UNL1        0.0623
     47 H           9.2045   -1.3923    1.5183 H       1  UNL1        0.0278
     48 H           9.1885    0.1509    2.4071 H       1  UNL1        0.0278
     49 H           9.7245    0.0855    0.7093 H       1  UNL1        0.0278
     50 H          -1.2433    1.7338    0.4839 H       1  UNL1        0.0643
@<TRIPOS>BOND
     1     1     2    1
     2     2     3   ar
     3     3     4   ar
     4     4     5   ar
     5     5     6   ar
     6     6     7   ar
     7     5     8    1
     8     8     9   ar
     9     9    10   ar
    10    10    11   ar
    11    11    12    1
    12    12    13   ar
    13    13    14   ar
    14    12    15   ar
    15    15    16   ar
    16    16    17   ar
    17    17    18    1
    18    18    19   ar
    19    19    20   ar
    20    18    21   ar
    21    21    22    1
    22    21    23   ar
    23    23    24   ar
    24    24    25    1
    25    11    26   ar
    26    26    27   ar
    27    27    28    1
    28    28    29    2
    29    28    30    2
    30     7     2   ar
    31    28     6    1
    32    27     8   ar
    33    17    14   ar
    34    22    16    1
    35    24    20   ar
    36     1    31    1
    37     1    32    1
    38     1    33    1
    39     3    34    1
    40     4    35    1
    41     7    36    1
    42     9    37    1
    43    10    38    1
    44    13    39    1
    45    14    40    1
    46    15    41    1
    47    19    42    1
    48    20    43    1
    49    22    44    1
    50    22    45    1
    51    23    46    1
    52    25    47    1
    53    25    48    1
    54    25    49    1
    55    26    50    1
