@<TRIPOS>MOLECULE
*****
 49 54 0 0 0
SMALL
GASTEIGER

@<TRIPOS>ATOM
      1 C          -9.1026   -0.3032   -0.0410 C.3     1  UNL1       -0.0397
      2 C          -7.6269   -0.0297    0.0028 C.ar    1  UNL1       -0.0486
      3 C          -7.1366    1.0981    0.6975 C.ar    1  UNL1       -0.0582
      4 C          -5.7612    1.3685    0.7856 C.ar    1  UNL1       -0.0519
      5 C          -4.8624    0.5005    0.1836 C.ar    1  UNL1        0.0092
      6 C          -5.3806   -0.6206   -0.4893 C.ar    1  UNL1        0.1016
      7 C          -6.7278   -0.9173   -0.5950 C.ar    1  UNL1       -0.0329
      8 C          -3.4000    0.5731    0.1442 C.ar    1  UNL1        0.0092
      9 C          -2.5607    1.5295    0.6927 C.ar    1  UNL1       -0.0516
     10 C          -1.1714    1.3952    0.5259 C.ar    1  UNL1       -0.0533
     11 C          -0.5971    0.3130   -0.1868 C.ar    1  UNL1       -0.0160
     12 C           0.8633    0.2084   -0.3428 C.ar    1  UNL1       -0.0159
     13 C           1.4414    0.1315   -1.6189 C.ar    1  UNL1       -0.0533
     14 C           2.8293    0.0324   -1.7940 C.ar    1  UNL1       -0.0514
     15 C           1.7007    0.1827    0.7886 C.ar    1  UNL1       -0.0300
     16 C           3.0861    0.0807    0.5975 C.ar    1  UNL1        0.0481
     17 C           3.6699    0.0065   -0.6646 C.ar    1  UNL1        0.0074
     18 C           5.0861   -0.0855   -0.4783 C.ar    1  UNL1        0.0074
     19 C           6.1858   -0.1875   -1.3534 C.ar    1  UNL1       -0.0518
     20 C           7.4818   -0.2629   -0.8271 C.ar    1  UNL1       -0.0581
     21 C           5.3290   -0.0676    0.8935 C.ar    1  UNL1        0.0477
     22 N           4.1072    0.0287    1.5171 N.ar    1  UNL1       -0.3541
     23 C           6.6176   -0.1433    1.4382 C.ar    1  UNL1       -0.0349
     24 C           7.7040   -0.2286    0.5534 C.ar    1  UNL1       -0.0485
     25 C           9.1010   -0.3449    1.0926 C.3     1  UNL1       -0.0396
     26 C          -1.4475   -0.6528   -0.7407 C.ar    1  UNL1       -0.0281
     27 C          -2.8100   -0.4923   -0.5574 C.ar    1  UNL1        0.1019
     28 S          -4.0611   -1.5729   -1.1590 S.O2    1  UNL1        0.0262
     29 O          -4.1029   -1.4709   -2.6015 O.2     1  UNL1       -0.1643
     30 O          -3.9795   -2.8223   -0.4343 O.2     1  UNL1       -0.1643
     31 H          -9.4011   -0.8840    0.8370 H       1  UNL1        0.0278
     32 H          -9.3700   -0.8632   -0.9433 H       1  UNL1        0.0278
     33 H          -9.6714    0.6323   -0.0589 H       1  UNL1        0.0278
     34 H          -7.8366    1.7802    1.1789 H       1  UNL1        0.0620
     35 H          -5.4240    2.2488    1.3247 H       1  UNL1        0.0624
     36 H          -7.0622   -1.8049   -1.1231 H       1  UNL1        0.0639
     37 H          -2.9524    2.3798    1.2430 H       1  UNL1        0.0624
     38 H          -0.5213    2.1604    0.9505 H       1  UNL1        0.0624
     39 H           0.8102    0.1585   -2.5058 H       1  UNL1        0.0624
     40 H           3.2493   -0.0228   -2.7939 H       1  UNL1        0.0624
     41 H           1.2836    0.2268    1.7906 H       1  UNL1        0.0644
     42 H           6.0325   -0.2111   -2.4281 H       1  UNL1        0.0624
     43 H           8.3215   -0.3489   -1.5138 H       1  UNL1        0.0620
     44 H           3.9786    0.0577    2.5174 H       1  UNL1        0.1659
     45 H           6.7709   -0.1349    2.5130 H       1  UNL1        0.0641
     46 H           9.1943    0.1751    2.0519 H       1  UNL1        0.0278
     47 H           9.8236    0.1091    0.4063 H       1  UNL1        0.0278
     48 H           9.3602   -1.3986    1.2345 H       1  UNL1        0.0278
     49 H          -1.0603   -1.5071   -1.2886 H       1  UNL1        0.0643
@<TRIPOS>BOND
     1     1     2    1
     2     2     3   ar
     3     3     4   ar
     4     4     5   ar
     5     5     6   ar
     6     6     7   ar
     7     5     8    1
     8     8     9   ar
     9     9    10   ar
    10    10    11   ar
    11    11    12    1
    12    12    13   ar
    13    13    14   ar
    14    12    15   ar
    15    15    16   ar
    16    16    17   ar
    17    17    18   ar
    18    18    19   ar
    19    19    20   ar
    20    18    21   ar
    21    21    22   ar
    22    21    23   ar
    23    23    24   ar
    24    24    25    1
    25    11    26   ar
    26    26    27   ar
    27    27    28    1
    28    28    29    2
    29    28    30    2
    30     7     2   ar
    31    28     6    1
    32    27     8   ar
    33    17    14   ar
    34    22    16   ar
    35    24    20   ar
    36     1    31    1
    37     1    32    1
    38     1    33    1
    39     3    34    1
    40     4    35    1
    41     7    36    1
    42     9    37    1
    43    10    38    1
    44    13    39    1
    45    14    40    1
    46    15    41    1
    47    19    42    1
    48    20    43    1
    49    22    44    1
    50    23    45    1
    51    25    46    1
    52    25    47    1
    53    25    48    1
    54    26    49    1
