@<TRIPOS>MOLECULE
*****
 47 51 0 0 0
SMALL
GASTEIGER

@<TRIPOS>ATOM
      1 C          -8.8668   -1.1639    0.2340 C.3     1  UNL1       -0.0397
      2 C          -7.4353   -0.7173    0.2817 C.ar    1  UNL1       -0.0486
      3 C          -7.0571    0.3583    1.1167 C.ar    1  UNL1       -0.0582
      4 C          -5.7198    0.7772    1.2208 C.ar    1  UNL1       -0.0519
      5 C          -4.7456    0.1097    0.4902 C.ar    1  UNL1        0.0092
      6 C          -5.1537   -0.9582   -0.3340 C.ar    1  UNL1        0.1016
      7 C          -6.4591   -1.4001   -0.4543 C.ar    1  UNL1       -0.0329
      8 C          -3.2980    0.3345    0.4684 C.ar    1  UNL1        0.0092
      9 C          -2.5510    1.2768    1.1613 C.ar    1  UNL1       -0.0516
     10 C          -1.1514    1.2712    1.0252 C.ar    1  UNL1       -0.0533
     11 C          -0.4818    0.3303    0.2020 C.ar    1  UNL1       -0.0146
     12 C           0.9785    0.3046    0.1362 C.ar    1  UNL1        0.0003
     13 C           1.7147   -0.6299    0.8657 C.ar    1  UNL1       -0.0505
     14 C           3.1056   -0.6491    0.7674 C.ar    1  UNL1       -0.0336
     15 C           1.7044    1.1828   -0.6675 C.ar    1  UNL1        0.0360
     16 N           3.0574    1.1910   -0.7797 N.ar    1  UNL1       -0.2528
     17 C           3.7588    0.2715   -0.0637 C.ar    1  UNL1        0.0891
     18 C           5.2342    0.2712   -0.2233 C.ar    1  UNL1        0.0891
     19 C           5.8899    1.0748   -1.1557 C.ar    1  UNL1       -0.0339
     20 C           7.2763    0.9908   -1.2914 C.ar    1  UNL1       -0.0553
     21 N           5.9290   -0.5860    0.5795 N.ar    1  UNL1       -0.2532
     22 C           7.2722   -0.6412    0.4345 C.ar    1  UNL1        0.0312
     23 C           7.9935    0.1160   -0.4844 C.ar    1  UNL1       -0.0323
     24 C           9.4750   -0.0328   -0.6022 C.3     1  UNL1       -0.0383
     25 C          -1.2356   -0.6036   -0.5183 C.ar    1  UNL1       -0.0281
     26 C          -2.6102   -0.5687   -0.3653 C.ar    1  UNL1        0.1019
     27 S          -3.7567   -1.6440   -1.1548 S.O2    1  UNL1        0.0262
     28 O          -3.8249   -1.2825   -2.5542 O.2     1  UNL1       -0.1643
     29 O          -3.5415   -2.9907   -0.6698 O.2     1  UNL1       -0.1643
     30 H          -9.5481   -0.3283    0.4284 H       1  UNL1        0.0278
     31 H          -9.1179   -1.5630   -0.7572 H       1  UNL1        0.0278
     32 H          -9.0336   -1.9490    0.9845 H       1  UNL1        0.0278
     33 H          -7.8144    0.8767    1.7035 H       1  UNL1        0.0620
     34 H          -5.4692    1.6058    1.8769 H       1  UNL1        0.0624
     35 H          -6.7034   -2.2398   -1.0896 H       1  UNL1        0.0639
     36 H          -3.0225    2.0052    1.8166 H       1  UNL1        0.0624
     37 H          -0.5710    1.9994    1.5899 H       1  UNL1        0.0624
     38 H           1.2168   -1.3441    1.5115 H       1  UNL1        0.0625
     39 H           3.6740   -1.3844    1.3364 H       1  UNL1        0.0640
     40 H           1.2030    1.9287   -1.2788 H       1  UNL1        0.0836
     41 H           5.3282    1.7692   -1.7804 H       1  UNL1        0.0639
     42 H           7.7833    1.6135   -2.0356 H       1  UNL1        0.0621
     43 H           7.7679   -1.3480    1.0964 H       1  UNL1        0.0832
     44 H           9.9048    0.7115   -1.2815 H       1  UNL1        0.0278
     45 H           9.7175   -1.0262   -0.9912 H       1  UNL1        0.0278
     46 H           9.9504    0.0943    0.3748 H       1  UNL1        0.0278
     47 H          -0.7669   -1.3358   -1.1695 H       1  UNL1        0.0643
@<TRIPOS>BOND
     1     1     2    1
     2     2     3   ar
     3     3     4   ar
     4     4     5   ar
     5     5     6   ar
     6     6     7   ar
     7     5     8    1
     8     8     9   ar
     9     9    10   ar
    10    10    11   ar
    11    11    12    1
    12    12    13   ar
    13    13    14   ar
    14    12    15   ar
    15    15    16   ar
    16    16    17   ar
    17    17    18    1
    18    18    19   ar
    19    19    20   ar
    20    18    21   ar
    21    21    22   ar
    22    22    23   ar
    23    23    24    1
    24    11    25   ar
    25    25    26   ar
    26    26    27    1
    27    27    28    2
    28    27    29    2
    29     7     2   ar
    30    27     6    1
    31    26     8   ar
    32    17    14   ar
    33    23    20   ar
    34     1    30    1
    35     1    31    1
    36     1    32    1
    37     3    33    1
    38     4    34    1
    39     7    35    1
    40     9    36    1
    41    10    37    1
    42    13    38    1
    43    14    39    1
    44    15    40    1
    45    19    41    1
    46    20    42    1
    47    22    43    1
    48    24    44    1
    49    24    45    1
    50    24    46    1
    51    25    47    1
