@<TRIPOS>MOLECULE
*****
 42 45 0 0 0
SMALL
GASTEIGER

@<TRIPOS>ATOM
      1 C          -7.4991   -0.7066   -0.0072 C.3     1  UNL1       -0.0397
      2 C          -6.0219   -0.5552   -0.2294 C.ar    1  UNL1       -0.0486
      3 C          -5.4627   -0.8484   -1.4929 C.ar    1  UNL1       -0.0582
      4 C          -4.0818   -0.7481   -1.7287 C.ar    1  UNL1       -0.0519
      5 C          -3.2462   -0.3610   -0.6916 C.ar    1  UNL1        0.0092
      6 C          -3.8313   -0.0887    0.5582 C.ar    1  UNL1        0.1016
      7 C          -5.1858   -0.1779    0.8252 C.ar    1  UNL1       -0.0329
      8 C          -1.7914   -0.1911   -0.6978 C.ar    1  UNL1        0.0092
      9 C          -0.8981   -0.3679   -1.7420 C.ar    1  UNL1       -0.0516
     10 C           0.4713   -0.1431   -1.5155 C.ar    1  UNL1       -0.0533
     11 C           0.9735    0.2596   -0.2523 C.ar    1  UNL1       -0.0160
     12 C           2.4146    0.4874   -0.0530 C.ar    1  UNL1       -0.0173
     13 C           3.3580   -0.4963   -0.3921 C.ar    1  UNL1       -0.0421
     14 C           4.7428   -0.2983   -0.2093 C.ar    1  UNL1        0.0583
     15 C           5.7069   -1.4000   -0.5935 C.3     1  UNL1        0.4177
     16 F           6.6519   -0.9880   -1.4843 F       1  UNL1       -0.1659
     17 F           6.3886   -1.8989    0.4748 F       1  UNL1       -0.1659
     18 F           5.1017   -2.4743   -1.1769 F       1  UNL1       -0.1659
     19 C           2.8889    1.6918    0.4821 C.ar    1  UNL1       -0.0538
     20 C           4.2560    1.9076    0.6736 C.ar    1  UNL1       -0.0577
     21 C           5.1934    0.9214    0.3376 C.ar    1  UNL1       -0.0388
     22 C           6.6576    1.1958    0.5540 C.3     1  UNL1       -0.0392
     23 C           0.0673    0.4374    0.8017 C.ar    1  UNL1       -0.0281
     24 C          -1.2738    0.2078    0.5460 C.ar    1  UNL1        0.1019
     25 S          -2.5829    0.3696    1.7101 S.O2    1  UNL1        0.0262
     26 O          -2.4540   -0.6806    2.6966 O.2     1  UNL1       -0.1643
     27 O          -2.7397    1.7715    2.0311 O.2     1  UNL1       -0.1643
     28 H          -7.8473   -0.0315    0.7816 H       1  UNL1        0.0278
     29 H          -7.7297   -1.7366    0.2816 H       1  UNL1        0.0278
     30 H          -8.0568   -0.4588   -0.9164 H       1  UNL1        0.0278
     31 H          -6.1124   -1.1604   -2.3100 H       1  UNL1        0.0620
     32 H          -3.6911   -0.9780   -2.7154 H       1  UNL1        0.0624
     33 H          -5.5732    0.0387    1.8160 H       1  UNL1        0.0639
     34 H          -1.2328   -0.6718   -2.7295 H       1  UNL1        0.0624
     35 H           1.1602   -0.2736   -2.3501 H       1  UNL1        0.0624
     36 H           3.0083   -1.4467   -0.7977 H       1  UNL1        0.0629
     37 H           2.1929    2.4858    0.7480 H       1  UNL1        0.0624
     38 H           4.5820    2.8596    1.0894 H       1  UNL1        0.0620
     39 H           6.8145    2.1505    1.0675 H       1  UNL1        0.0278
     40 H           7.1796    1.2460   -0.4065 H       1  UNL1        0.0278
     41 H           7.1071    0.4162    1.1764 H       1  UNL1        0.0278
     42 H           0.3948    0.7352    1.7937 H       1  UNL1        0.0643
@<TRIPOS>BOND
     1     1     2    1
     2     2     3   ar
     3     3     4   ar
     4     4     5   ar
     5     5     6   ar
     6     6     7   ar
     7     5     8    1
     8     8     9   ar
     9     9    10   ar
    10    10    11   ar
    11    11    12    1
    12    12    13   ar
    13    13    14   ar
    14    14    15    1
    15    15    16    1
    16    15    17    1
    17    15    18    1
    18    12    19   ar
    19    19    20   ar
    20    20    21   ar
    21    21    22    1
    22    11    23   ar
    23    23    24   ar
    24    24    25    1
    25    25    26    2
    26    25    27    2
    27     7     2   ar
    28    25     6    1
    29    24     8   ar
    30    21    14   ar
    31     1    28    1
    32     1    29    1
    33     1    30    1
    34     3    31    1
    35     4    32    1
    36     7    33    1
    37     9    34    1
    38    10    35    1
    39    13    36    1
    40    19    37    1
    41    20    38    1
    42    22    39    1
    43    22    40    1
    44    22    41    1
    45    23    42    1
