@<TRIPOS>MOLECULE
*****
 37 42 0 0 0
SMALL
GASTEIGER

@<TRIPOS>ATOM
      1 SI         -3.9850    1.5693    2.0498 Si      1  UNL1        0.0000
      2 C          -4.9596    0.5975    0.7798 C.2     1  UNL1        0.0000
      3 C          -4.1310   -0.0218   -0.0811 C.ar    1  UNL1        0.0000
      4 C          -4.5483   -0.8548   -1.1904 C.ar    1  UNL1        0.0000
      5 C          -3.6049   -1.4088   -1.9746 C.ar    1  UNL1        0.0000
      6 C          -2.1772   -1.1980   -1.7404 C.ar    1  UNL1        0.0000
      7 C          -1.7047   -0.4420   -0.7211 C.ar    1  UNL1        0.0000
      8 C          -0.2536   -0.3024   -0.5915 C.ar    1  UNL1        0.0000
      9 C           0.5291    0.5761   -1.3933 C.ar    1  UNL1        0.0000
     10 C           1.9311    0.6617   -1.1949 C.ar    1  UNL1        0.0000
     11 N           2.9191    1.4051   -1.8027 N.ar    1  UNL1        0.0000
     12 C           4.1420    1.1039   -1.2151 C.ar    1  UNL1        0.0000
     13 C           5.4964    1.5047   -1.3706 C.ar    1  UNL1        0.0000
     14 C           6.2891    0.8319   -0.4643 C.ar    1  UNL1        0.0000
     15 S           5.4339   -0.2596    0.5560 S.2     1  UNL1        0.0000
     16 C           3.9560    0.1680   -0.2257 C.ar    1  UNL1        0.0000
     17 C           2.5862   -0.0818   -0.2394 C.ar    1  UNL1        0.0000
     18 C           1.8738   -0.9678    0.5891 C.ar    1  UNL1        0.0000
     19 C           2.2272   -1.8099    1.5927 C.ar    1  UNL1        0.0000
     20 O           1.0786   -2.4253    2.0311 O.2     1  UNL1        0.0000
     21 C           0.0331   -1.9423    1.2781 C.ar    1  UNL1        0.0000
     22 C           0.4869   -1.0225    0.3601 C.ar    1  UNL1        0.0000
     23 C          -2.6843    0.1964    0.1636 C.ar    1  UNL1        0.0000
     24 C          -2.4130    0.9926    1.2177 C.2     1  UNL1        0.0000
     25 H          -4.1946    3.0317    1.9189 H       1  UNL1        0.0000
     26 H          -4.1417    1.0200    3.4182 H       1  UNL1        0.0000
     27 H          -6.0373    0.5761    0.7869 H       1  UNL1        0.0000
     28 H          -5.6042   -1.0186   -1.3718 H       1  UNL1        0.0000
     29 H          -3.8848   -2.0389   -2.8133 H       1  UNL1        0.0000
     30 H          -1.5012   -1.6950   -2.4320 H       1  UNL1        0.0000
     31 H           0.0458    1.1854   -2.1536 H       1  UNL1        0.0000
     32 H           2.8107    2.0717   -2.5560 H       1  UNL1        0.0000
     33 H           5.8669    2.2270   -2.0863 H       1  UNL1        0.0000
     34 H           7.3597    0.9237   -0.3399 H       1  UNL1        0.0000
     35 H           3.1397   -2.0930    2.0961 H       1  UNL1        0.0000
     36 H          -0.9372   -2.3506    1.5248 H       1  UNL1        0.0000
     37 H          -1.4430    1.2903    1.5831 H       1  UNL1        0.0000
@<TRIPOS>BOND
     1     1     2    1
     2     2     3    2
     3     3     4   ar
     4     4     5   ar
     5     5     6   ar
     6     6     7   ar
     7     7     8    1
     8     8     9   ar
     9     9    10   ar
    10    10    11   ar
    11    11    12   ar
    12    12    13   ar
    13    13    14   ar
    14    14    15   ar
    15    15    16   ar
    16    16    17   ar
    17    17    18   ar
    18    18    19   ar
    19    19    20   ar
    20    20    21   ar
    21    21    22   ar
    22     7    23   ar
    23    23    24    2
    24    24     1    1
    25    23     3   ar
    26    22     8   ar
    27    17    10   ar
    28    22    18   ar
    29    16    12   ar
    30     1    25    1
    31     1    26    1
    32     2    27    1
    33     4    28    1
    34     5    29    1
    35     6    30    1
    36     9    31    1
    37    11    32    1
    38    13    33    1
    39    14    34    1
    40    19    35    1
    41    21    36    1
    42    24    37    1
