@<TRIPOS>MOLECULE
*****
 49 54 0 0 0
SMALL
GASTEIGER

@<TRIPOS>ATOM
      1 C          -9.0447    1.1362   -1.0482 C.3     1  UNL1       -0.0397
      2 C          -7.6186    0.7803   -0.7413 C.ar    1  UNL1       -0.0486
      3 C          -7.3057   -0.4881   -0.2043 C.ar    1  UNL1       -0.0582
      4 C          -5.9807   -0.8668    0.0668 C.ar    1  UNL1       -0.0519
      5 C          -4.9539    0.0238   -0.2093 C.ar    1  UNL1        0.0092
      6 C          -5.2963    1.2736   -0.7560 C.ar    1  UNL1        0.1016
      7 C          -6.5892    1.6788   -1.0357 C.ar    1  UNL1       -0.0329
      8 C          -3.5121   -0.1468   -0.0157 C.ar    1  UNL1        0.0092
      9 C          -2.8248   -1.2367    0.4934 C.ar    1  UNL1       -0.0516
     10 C          -1.4232   -1.1776    0.5878 C.ar    1  UNL1       -0.0533
     11 C          -0.6846   -0.0377    0.1814 C.ar    1  UNL1       -0.0146
     12 C           0.7795   -0.0149    0.2962 C.ar    1  UNL1        0.0009
     13 C           1.5824   -1.0118   -0.2620 C.ar    1  UNL1       -0.0433
     14 C           2.9820   -0.9696   -0.1416 C.ar    1  UNL1        0.0031
     15 C           3.7645   -1.9768   -0.7140 C.ar    1  UNL1       -0.0519
     16 C           5.1460   -1.9351   -0.5956 C.ar    1  UNL1       -0.0519
     17 C           1.4531    0.9967    0.9648 C.ar    1  UNL1        0.0361
     18 N           2.7979    1.0681    1.1022 N.ar    1  UNL1       -0.2522
     19 C           3.5816    0.1024    0.5606 C.ar    1  UNL1        0.0968
     20 C           4.9842    0.1450    0.6820 C.ar    1  UNL1        0.0968
     21 N           5.6019    1.1550    1.3451 N.ar    1  UNL1       -0.2526
     22 C           6.9489    1.1667    1.4437 C.ar    1  UNL1        0.0313
     23 C           5.7576   -0.8860    0.0969 C.ar    1  UNL1        0.0028
     24 C           7.1551   -0.8438    0.2179 C.ar    1  UNL1       -0.0481
     25 C           7.7728    0.1916    0.9136 C.ar    1  UNL1       -0.0318
     26 C           9.2598    0.2827    1.0279 C.3     1  UNL1       -0.0383
     27 C          -1.3825    1.0640   -0.3319 C.ar    1  UNL1       -0.0281
     28 C          -2.7618    0.9726   -0.4140 C.ar    1  UNL1        0.1019
     29 S          -3.8392    2.2216   -1.0276 S.O2    1  UNL1        0.0262
     30 O          -3.6287    2.3487   -2.4531 O.2     1  UNL1       -0.1643
     31 O          -3.8286    3.3319   -0.1007 O.2     1  UNL1       -0.1643
     32 H          -9.3061    0.7965   -2.0550 H       1  UNL1        0.0278
     33 H          -9.7255    0.6710   -0.3278 H       1  UNL1        0.0278
     34 H          -9.1992    2.2187   -0.9888 H       1  UNL1        0.0278
     35 H          -8.1068   -1.1951    0.0085 H       1  UNL1        0.0620
     36 H          -5.7818   -1.8492    0.4846 H       1  UNL1        0.0624
     37 H          -6.7855    2.6564   -1.4651 H       1  UNL1        0.0639
     38 H          -3.3451   -2.1312    0.8231 H       1  UNL1        0.0624
     39 H          -0.8981   -2.0386    1.0023 H       1  UNL1        0.0624
     40 H           1.1138   -1.8267   -0.8112 H       1  UNL1        0.0631
     41 H           3.3050   -2.8002   -1.2568 H       1  UNL1        0.0624
     42 H           5.7408   -2.7263   -1.0469 H       1  UNL1        0.0624
     43 H           0.9172    1.8143    1.4418 H       1  UNL1        0.0836
     44 H           7.3521    2.0196    1.9834 H       1  UNL1        0.0832
     45 H           7.7666   -1.6230   -0.2325 H       1  UNL1        0.0627
     46 H           9.5510    0.7931    1.9520 H       1  UNL1        0.0278
     47 H           9.6691    0.8345    0.1761 H       1  UNL1        0.0278
     48 H           9.7112   -0.7147    1.0524 H       1  UNL1        0.0278
     49 H          -0.8714    1.9615   -0.6695 H       1  UNL1        0.0643
@<TRIPOS>BOND
     1     1     2    1
     2     2     3   ar
     3     3     4   ar
     4     4     5   ar
     5     5     6   ar
     6     6     7   ar
     7     5     8    1
     8     8     9   ar
     9     9    10   ar
    10    10    11   ar
    11    11    12    1
    12    12    13   ar
    13    13    14   ar
    14    14    15   ar
    15    15    16   ar
    16    12    17   ar
    17    17    18   ar
    18    18    19   ar
    19    19    20   ar
    20    20    21   ar
    21    21    22   ar
    22    20    23   ar
    23    23    24   ar
    24    24    25   ar
    25    25    26    1
    26    11    27   ar
    27    27    28   ar
    28    28    29    1
    29    29    30    2
    30    29    31    2
    31     7     2   ar
    32    29     6    1
    33    28     8   ar
    34    19    14   ar
    35    23    16   ar
    36    25    22   ar
    37     1    32    1
    38     1    33    1
    39     1    34    1
    40     3    35    1
    41     4    36    1
    42     7    37    1
    43     9    38    1
    44    10    39    1
    45    13    40    1
    46    15    41    1
    47    16    42    1
    48    17    43    1
    49    22    44    1
    50    24    45    1
    51    26    46    1
    52    26    47    1
    53    26    48    1
    54    27    49    1
