@<TRIPOS>MOLECULE
*****
 39 42 0 0 0
SMALL
GASTEIGER

@<TRIPOS>ATOM
      1 C           7.0484   -0.6133   -0.0435 C.3     1  UNL1       -0.0397
      2 C           5.5715   -0.4696   -0.2728 C.ar    1  UNL1       -0.0486
      3 C           5.0820   -0.1657   -1.5624 C.ar    1  UNL1       -0.0582
      4 C           3.7099    0.0069   -1.8078 C.ar    1  UNL1       -0.0519
      5 C           2.8152   -0.1146   -0.7551 C.ar    1  UNL1        0.0092
      6 C           3.3344   -0.4045    0.5196 C.ar    1  UNL1        0.1016
      7 C           4.6784   -0.5800    0.7967 C.ar    1  UNL1       -0.0329
      8 C           1.3569    0.0238   -0.7676 C.ar    1  UNL1        0.0092
      9 C           0.5177    0.2998   -1.8358 C.ar    1  UNL1       -0.0516
     10 C          -0.8668    0.3867   -1.6119 C.ar    1  UNL1       -0.0533
     11 C          -1.4320    0.2048   -0.3260 C.ar    1  UNL1       -0.0146
     12 C          -2.8862    0.2967   -0.1291 C.ar    1  UNL1        0.0019
     13 C          -3.6246   -0.8848    0.0624 C.ar    1  UNL1       -0.0340
     14 C          -5.0108   -0.8518    0.2516 C.ar    1  UNL1        0.0445
     15 CL         -5.8306   -2.3557    0.4744 Cl      1  UNL1       -0.0832
     16 C          -3.5838    1.5175   -0.1207 C.ar    1  UNL1        0.0490
     17 CL         -2.7736    3.0331   -0.3266 Cl      1  UNL1       -0.0829
     18 C          -4.9715    1.5499    0.0695 C.ar    1  UNL1       -0.0385
     19 C          -5.7022    0.3667    0.2571 C.ar    1  UNL1       -0.0307
     20 C          -7.1896    0.4383    0.4596 C.3     1  UNL1       -0.0383
     21 C          -0.5862   -0.0778    0.7534 C.ar    1  UNL1       -0.0281
     22 C           0.7715   -0.1570    0.4978 C.ar    1  UNL1        0.1019
     23 S           2.0218   -0.5003    1.6871 S.O2    1  UNL1        0.0262
     24 O           1.8805   -1.8753    2.1143 O.2     1  UNL1       -0.1643
     25 O           2.1203    0.6251    2.5904 O.2     1  UNL1       -0.1643
     26 H           7.5388   -1.0429   -0.9233 H       1  UNL1        0.0278
     27 H           7.4906    0.3652    0.1676 H       1  UNL1        0.0278
     28 H           7.2501   -1.2821    0.7998 H       1  UNL1        0.0278
     29 H           5.7799   -0.0610   -2.3924 H       1  UNL1        0.0620
     30 H           3.3728    0.2362   -2.8143 H       1  UNL1        0.0624
     31 H           5.0152   -0.7943    1.8063 H       1  UNL1        0.0639
     32 H           0.9068    0.4506   -2.8384 H       1  UNL1        0.0624
     33 H          -1.5182    0.6046   -2.4583 H       1  UNL1        0.0624
     34 H          -3.1106   -1.8453    0.0593 H       1  UNL1        0.0639
     35 H          -5.4853    2.5097    0.0743 H       1  UNL1        0.0635
     36 H          -7.5491    1.4725    0.4304 H       1  UNL1        0.0278
     37 H          -7.4624    0.0242    1.4356 H       1  UNL1        0.0278
     38 H          -7.7096   -0.1113   -0.3315 H       1  UNL1        0.0278
     39 H          -0.9699   -0.2248    1.7588 H       1  UNL1        0.0643
@<TRIPOS>BOND
     1     1     2    1
     2     2     3   ar
     3     3     4   ar
     4     4     5   ar
     5     5     6   ar
     6     6     7   ar
     7     5     8    1
     8     8     9   ar
     9     9    10   ar
    10    10    11   ar
    11    11    12    1
    12    12    13   ar
    13    13    14   ar
    14    14    15    1
    15    12    16   ar
    16    16    17    1
    17    16    18   ar
    18    18    19   ar
    19    19    20    1
    20    11    21   ar
    21    21    22   ar
    22    22    23    1
    23    23    24    2
    24    23    25    2
    25     7     2   ar
    26    23     6    1
    27    22     8   ar
    28    19    14   ar
    29     1    26    1
    30     1    27    1
    31     1    28    1
    32     3    29    1
    33     4    30    1
    34     7    31    1
    35     9    32    1
    36    10    33    1
    37    13    34    1
    38    18    35    1
    39    20    36    1
    40    20    37    1
    41    20    38    1
    42    21    39    1
