@<TRIPOS>MOLECULE
*****
 41 44 0 0 0
SMALL
GASTEIGER

@<TRIPOS>ATOM
      1 C          -7.3682   -0.0664   -0.4146 C.3     1  UNL1       -0.0397
      2 C          -5.8908   -0.1701   -0.1679 C.ar    1  UNL1       -0.0486
      3 C          -5.4087   -0.8767    0.9560 C.ar    1  UNL1       -0.0582
      4 C          -4.0353   -0.9678    1.2354 C.ar    1  UNL1       -0.0519
      5 C          -3.1313   -0.3397    0.3915 C.ar    1  UNL1        0.0092
      6 C          -3.6428    0.3670   -0.7115 C.ar    1  UNL1        0.1016
      7 C          -4.9879    0.4776   -1.0158 C.ar    1  UNL1       -0.0329
      8 C          -1.6701   -0.2938    0.4796 C.ar    1  UNL1        0.0092
      9 C          -0.8363   -0.8735    1.4220 C.ar    1  UNL1       -0.0516
     10 C           0.5538   -0.6970    1.3054 C.ar    1  UNL1       -0.0533
     11 C           1.1372    0.0566    0.2549 C.ar    1  UNL1       -0.0132
     12 C           2.5999    0.2127    0.1642 C.ar    1  UNL1        0.0191
     13 C           3.4501   -0.9076    0.1982 C.ar    1  UNL1       -0.0303
     14 C           4.8495   -0.7873    0.1426 C.ar    1  UNL1        0.0282
     15 N           5.6233   -1.9545    0.0654 N.pl3   1  UNL1       -0.3577
     16 C           3.2018    1.4680    0.0273 C.ar    1  UNL1        0.1314
     17 F           2.4506    2.5797   -0.0037 F       1  UNL1       -0.2048
     18 C           4.5828    1.6083   -0.0875 C.ar    1  UNL1       -0.0212
     19 C           5.4182    0.4828   -0.0554 C.ar    1  UNL1       -0.0271
     20 C           6.9006    0.6683   -0.2259 C.3     1  UNL1       -0.0379
     21 C           0.2892    0.6433   -0.6948 C.ar    1  UNL1       -0.0281
     22 C          -1.0743    0.4506   -0.5526 C.ar    1  UNL1        0.1019
     23 S          -2.3186    1.0824   -1.6240 S.O2    1  UNL1        0.0262
     24 O          -2.2191    0.4035   -2.8978 O.2     1  UNL1       -0.1643
     25 O          -2.3791    2.5195   -1.4711 O.2     1  UNL1       -0.1643
     26 H          -7.5788    0.0573   -1.4821 H       1  UNL1        0.0278
     27 H          -7.7784    0.7906    0.1284 H       1  UNL1        0.0278
     28 H          -7.8824   -0.9753   -0.0852 H       1  UNL1        0.0278
     29 H          -6.1136   -1.3658    1.6275 H       1  UNL1        0.0620
     30 H          -3.7040   -1.5236    2.1074 H       1  UNL1        0.0624
     31 H          -5.3176    1.0462   -1.8798 H       1  UNL1        0.0639
     32 H          -1.2331   -1.4569    2.2474 H       1  UNL1        0.0624
     33 H           1.1951   -1.1490    2.0621 H       1  UNL1        0.0624
     34 H           3.0114   -1.9021    0.2574 H       1  UNL1        0.0643
     35 H           6.5915   -1.8356    0.3441 H       1  UNL1        0.1423
     36 H           5.1985   -2.7663    0.5022 H       1  UNL1        0.1423
     37 H           4.9923    2.6066   -0.2150 H       1  UNL1        0.0650
     38 H           7.4278    0.3554    0.6810 H       1  UNL1        0.0278
     39 H           7.1567    1.7166   -0.4134 H       1  UNL1        0.0278
     40 H           7.2624    0.0856   -1.0792 H       1  UNL1        0.0278
     41 H           0.6778    1.2303   -1.5224 H       1  UNL1        0.0643
@<TRIPOS>BOND
     1     1     2    1
     2     2     3   ar
     3     3     4   ar
     4     4     5   ar
     5     5     6   ar
     6     6     7   ar
     7     5     8    1
     8     8     9   ar
     9     9    10   ar
    10    10    11   ar
    11    11    12    1
    12    12    13   ar
    13    13    14   ar
    14    14    15    1
    15    12    16   ar
    16    16    17    1
    17    16    18   ar
    18    18    19   ar
    19    19    20    1
    20    11    21   ar
    21    21    22   ar
    22    22    23    1
    23    23    24    2
    24    23    25    2
    25     7     2   ar
    26    23     6    1
    27    22     8   ar
    28    19    14   ar
    29     1    26    1
    30     1    27    1
    31     1    28    1
    32     3    29    1
    33     4    30    1
    34     7    31    1
    35     9    32    1
    36    10    33    1
    37    13    34    1
    38    15    35    1
    39    15    36    1
    40    18    37    1
    41    20    38    1
    42    20    39    1
    43    20    40    1
    44    21    41    1
