@<TRIPOS>MOLECULE
*****
 37 40 0 0 0
SMALL
GASTEIGER

@<TRIPOS>ATOM
      1 C          -6.7609   -0.0770   -0.3106 C.3     1  UNL1       -0.0397
      2 C          -5.2849    0.1742   -0.1970 C.ar    1  UNL1       -0.0486
      3 C          -4.7977    1.4964   -0.0996 C.ar    1  UNL1       -0.0582
      4 C          -3.4226    1.7712   -0.0230 C.ar    1  UNL1       -0.0519
      5 C          -2.5209    0.7178   -0.0537 C.ar    1  UNL1        0.0092
      6 C          -3.0362   -0.5864   -0.1647 C.ar    1  UNL1        0.1016
      7 C          -4.3830   -0.8926   -0.2428 C.ar    1  UNL1       -0.0329
      8 C          -1.0581    0.7579    0.0084 C.ar    1  UNL1        0.0092
      9 C          -0.2201    1.8553    0.1188 C.ar    1  UNL1       -0.0516
     10 C           1.1712    1.6529    0.1595 C.ar    1  UNL1       -0.0532
     11 C           1.7528    0.3608    0.0908 C.ar    1  UNL1       -0.0131
     12 C           3.2097    0.1902    0.1347 C.ar    1  UNL1        0.0184
     13 C           3.9112   -0.5970   -0.7622 C.ar    1  UNL1        0.0388
     14 N           5.2511   -0.7724   -0.7475 N.ar    1  UNL1       -0.2400
     15 C           4.0180    0.8002    1.0784 C.ar    1  UNL1        0.0388
     16 N           5.3613    0.6681    1.1434 N.ar    1  UNL1       -0.2400
     17 C           5.9294   -0.1178    0.2115 C.ar    1  UNL1        0.1259
     18 C           7.4112   -0.3150    0.2751 C.3     1  UNL1       -0.0046
     19 C           0.9005   -0.7470   -0.0216 C.ar    1  UNL1       -0.0281
     20 C          -0.4643   -0.5132   -0.0579 C.ar    1  UNL1        0.1019
     21 S          -1.7138   -1.7458   -0.1934 S.O2    1  UNL1        0.0262
     22 O          -1.7365   -2.5094    1.0347 O.2     1  UNL1       -0.1643
     23 O          -1.6341   -2.3302   -1.5142 O.2     1  UNL1       -0.1643
     24 H          -7.3272    0.6674    0.2588 H       1  UNL1        0.0278
     25 H          -7.0680   -0.0311   -1.3599 H       1  UNL1        0.0278
     26 H          -7.0223   -1.0614    0.0918 H       1  UNL1        0.0278
     27 H          -5.5003    2.3290   -0.0825 H       1  UNL1        0.0620
     28 H          -3.0885    2.8015    0.0554 H       1  UNL1        0.0624
     29 H          -4.7157   -1.9220   -0.3349 H       1  UNL1        0.0639
     30 H          -0.6146    2.8661    0.1705 H       1  UNL1        0.0624
     31 H           1.8125    2.5322    0.2315 H       1  UNL1        0.0624
     32 H           3.4034   -1.1293   -1.5631 H       1  UNL1        0.0837
     33 H           3.5973    1.4340    1.8553 H       1  UNL1        0.0837
     34 H           7.6416   -1.1729    0.9133 H       1  UNL1        0.0308
     35 H           7.9006    0.5730    0.6866 H       1  UNL1        0.0308
     36 H           7.8185   -0.4984   -0.7239 H       1  UNL1        0.0308
     37 H           1.2795   -1.7646   -0.0661 H       1  UNL1        0.0643
@<TRIPOS>BOND
     1     1     2    1
     2     2     3   ar
     3     3     4   ar
     4     4     5   ar
     5     5     6   ar
     6     6     7   ar
     7     5     8    1
     8     8     9   ar
     9     9    10   ar
    10    10    11   ar
    11    11    12    1
    12    12    13   ar
    13    13    14   ar
    14    12    15   ar
    15    15    16   ar
    16    16    17   ar
    17    17    18    1
    18    11    19   ar
    19    19    20   ar
    20    20    21    1
    21    21    22    2
    22    21    23    2
    23     7     2   ar
    24    21     6    1
    25    20     8   ar
    26    17    14   ar
    27     1    24    1
    28     1    25    1
    29     1    26    1
    30     3    27    1
    31     4    28    1
    32     7    29    1
    33     9    30    1
    34    10    31    1
    35    13    32    1
    36    15    33    1
    37    18    34    1
    38    18    35    1
    39    18    36    1
    40    19    37    1
