@<TRIPOS>MOLECULE
*****
 40 44 0 0 0
SMALL
GASTEIGER

@<TRIPOS>ATOM
      1 C           7.2190   -0.0256    0.3073 C.3     1  UNL1       -0.0397
      2 C           5.7433   -0.0797    0.0356 C.ar    1  UNL1       -0.0486
      3 C           5.2716   -0.1881   -1.2913 C.ar    1  UNL1       -0.0582
      4 C           3.8985   -0.2102   -1.5856 C.ar    1  UNL1       -0.0519
      5 C           2.9839   -0.1129   -0.5475 C.ar    1  UNL1        0.0092
      6 C           3.4844    0.0071    0.7614 C.ar    1  UNL1        0.1016
      7 C           4.8288    0.0328    1.0867 C.ar    1  UNL1       -0.0329
      8 C           1.5206   -0.1118   -0.6085 C.ar    1  UNL1        0.0092
      9 C           0.6946   -0.2188   -1.7149 C.ar    1  UNL1       -0.0516
     10 C          -0.6999   -0.1992   -1.5323 C.ar    1  UNL1       -0.0532
     11 C          -1.2988   -0.0722   -0.2525 C.ar    1  UNL1       -0.0111
     12 C          -2.7609   -0.0649   -0.1082 C.ar    1  UNL1        0.0484
     13 C          -3.4483    0.9317    0.6479 C.ar    1  UNL1        0.1107
     14 N          -2.8933    1.9683    1.3007 N.ar    1  UNL1       -0.1901
     15 S          -4.1204    2.8197    2.0129 S.2     1  UNL1        0.1165
     16 N          -5.4297    1.9296    1.5275 N.ar    1  UNL1       -0.1904
     17 C          -4.9629    0.9166    0.7805 C.ar    1  UNL1        0.1063
     18 C          -3.6113   -1.0217   -0.7024 C.ar    1  UNL1        0.1685
     19 F          -3.0599   -2.0046   -1.4363 F       1  UNL1       -0.2018
     20 C          -5.0190   -1.0280   -0.5740 C.ar    1  UNL1        0.1641
     21 F          -5.6965   -2.0066   -1.1981 F       1  UNL1       -0.2021
     22 C          -5.7576   -0.0822    0.1600 C.ar    1  UNL1        0.0157
     23 C          -7.2488   -0.1757    0.2355 C.3     1  UNL1       -0.0348
     24 C          -0.4562    0.0324    0.8639 C.ar    1  UNL1       -0.0280
     25 C           0.9121    0.0125    0.6509 C.ar    1  UNL1        0.1019
     26 S           2.1472    0.1247    1.8992 S.O2    1  UNL1        0.0262
     27 O           2.1081   -1.0839    2.6935 O.2     1  UNL1       -0.1643
     28 O           2.1282    1.4613    2.4521 O.2     1  UNL1       -0.1643
     29 H           7.5735    1.0076    0.2410 H       1  UNL1        0.0278
     30 H           7.7702   -0.6378   -0.4142 H       1  UNL1        0.0278
     31 H           7.4477   -0.4147    1.3051 H       1  UNL1        0.0278
     32 H           5.9845   -0.2574   -2.1123 H       1  UNL1        0.0620
     33 H           3.5756   -0.2994   -2.6185 H       1  UNL1        0.0624
     34 H           5.1497    0.1360    2.1187 H       1  UNL1        0.0639
     35 H           1.1000   -0.3194   -2.7174 H       1  UNL1        0.0624
     36 H          -1.3307   -0.2844   -2.4177 H       1  UNL1        0.0624
     37 H          -7.6746    0.6230    0.8500 H       1  UNL1        0.0279
     38 H          -7.5442   -1.1330    0.6768 H       1  UNL1        0.0279
     39 H          -7.6819   -0.0970   -0.7668 H       1  UNL1        0.0279
     40 H          -0.8466    0.1259    1.8736 H       1  UNL1        0.0643
@<TRIPOS>BOND
     1     1     2    1
     2     2     3   ar
     3     3     4   ar
     4     4     5   ar
     5     5     6   ar
     6     6     7   ar
     7     5     8    1
     8     8     9   ar
     9     9    10   ar
    10    10    11   ar
    11    11    12    1
    12    12    13   ar
    13    13    14   ar
    14    14    15   ar
    15    15    16   ar
    16    16    17   ar
    17    12    18   ar
    18    18    19    1
    19    18    20   ar
    20    20    21    1
    21    20    22   ar
    22    22    23    1
    23    11    24   ar
    24    24    25   ar
    25    25    26    1
    26    26    27    2
    27    26    28    2
    28     7     2   ar
    29    26     6    1
    30    25     8   ar
    31    17    13   ar
    32    22    17   ar
    33     1    29    1
    34     1    30    1
    35     1    31    1
    36     3    32    1
    37     4    33    1
    38     7    34    1
    39     9    35    1
    40    10    36    1
    41    23    37    1
    42    23    38    1
    43    23    39    1
    44    24    40    1
