@<TRIPOS>MOLECULE
*****
 40 44 0 0 0
SMALL
GASTEIGER

@<TRIPOS>ATOM
      1 C          -7.2232   -0.2758   -0.0959 C.3     1  UNL1       -0.0397
      2 C          -5.7400   -0.2836    0.1368 C.ar    1  UNL1       -0.0486
      3 C          -5.2275   -0.5427    1.4273 C.ar    1  UNL1       -0.0582
      4 C          -3.8477   -0.5278    1.6887 C.ar    1  UNL1       -0.0519
      5 C          -2.9678   -0.2417    0.6555 C.ar    1  UNL1        0.0092
      6 C          -3.5091    0.0248   -0.6149 C.ar    1  UNL1        0.1016
      7 C          -4.8613    0.0193   -0.9072 C.ar    1  UNL1       -0.0329
      8 C          -1.5055   -0.1673    0.6874 C.ar    1  UNL1        0.0092
      9 C          -0.6459   -0.3706    1.7538 C.ar    1  UNL1       -0.0516
     10 C           0.7401   -0.2483    1.5485 C.ar    1  UNL1       -0.0532
     11 C           1.2971    0.0731    0.2843 C.ar    1  UNL1       -0.0112
     12 C           2.7492    0.1971    0.1010 C.ar    1  UNL1        0.0455
     13 C           3.6636   -0.8118    0.5291 C.ar    1  UNL1        0.1105
     14 N           3.3539   -1.9741    1.1339 N.ar    1  UNL1       -0.1901
     15 S           4.7730   -2.7810    1.4061 S.2     1  UNL1        0.1165
     16 N           5.8642   -1.7035    0.7830 N.ar    1  UNL1       -0.1905
     17 C           5.1615   -0.6583    0.3180 C.ar    1  UNL1        0.1035
     18 C           3.3658    1.3049   -0.5208 C.ar    1  UNL1        0.1335
     19 F           2.5929    2.3138   -0.9574 F       1  UNL1       -0.2048
     20 C           4.7579    1.4496   -0.7170 C.ar    1  UNL1       -0.0208
     21 C           5.7110    0.4916   -0.3125 C.ar    1  UNL1       -0.0195
     22 C           7.1697    0.7237   -0.5612 C.3     1  UNL1       -0.0375
     23 C           0.4207    0.2831   -0.7904 C.ar    1  UNL1       -0.0280
     24 C          -0.9383    0.1566   -0.5559 C.ar    1  UNL1        0.1019
     25 S          -2.2110    0.3674   -1.7523 S.O2    1  UNL1        0.0262
     26 O          -2.1318   -0.7182   -2.7053 O.2     1  UNL1       -0.1643
     27 O          -2.2744    1.7657   -2.1179 O.2     1  UNL1       -0.1643
     28 H          -7.7218   -1.0088    0.5469 H       1  UNL1        0.0278
     29 H          -7.6295    0.7178    0.1166 H       1  UNL1        0.0278
     30 H          -7.4580   -0.5398   -1.1324 H       1  UNL1        0.0278
     31 H          -5.9133   -0.7611    2.2453 H       1  UNL1        0.0620
     32 H          -3.4924   -0.7371    2.6933 H       1  UNL1        0.0624
     33 H          -5.2149    0.2416   -1.9093 H       1  UNL1        0.0639
     34 H          -1.0176   -0.6238    2.7423 H       1  UNL1        0.0624
     35 H           1.3985   -0.4102    2.4026 H       1  UNL1        0.0624
     36 H           5.0974    2.3613   -1.2104 H       1  UNL1        0.0650
     37 H           7.4932    1.6448   -0.0659 H       1  UNL1        0.0278
     38 H           7.7826   -0.0975   -0.1781 H       1  UNL1        0.0278
     39 H           7.3575    0.8125   -1.6359 H       1  UNL1        0.0278
     40 H           0.7812    0.5345   -1.7841 H       1  UNL1        0.0643
@<TRIPOS>BOND
     1     1     2    1
     2     2     3   ar
     3     3     4   ar
     4     4     5   ar
     5     5     6   ar
     6     6     7   ar
     7     5     8    1
     8     8     9   ar
     9     9    10   ar
    10    10    11   ar
    11    11    12    1
    12    12    13   ar
    13    13    14   ar
    14    14    15   ar
    15    15    16   ar
    16    16    17   ar
    17    12    18   ar
    18    18    19    1
    19    18    20   ar
    20    20    21   ar
    21    21    22    1
    22    11    23   ar
    23    23    24   ar
    24    24    25    1
    25    25    26    2
    26    25    27    2
    27     7     2   ar
    28    25     6    1
    29    24     8   ar
    30    17    13   ar
    31    21    17   ar
    32     1    28    1
    33     1    29    1
    34     1    30    1
    35     3    31    1
    36     4    32    1
    37     7    33    1
    38     9    34    1
    39    10    35    1
    40    20    36    1
    41    22    37    1
    42    22    38    1
    43    22    39    1
    44    23    40    1
