@<TRIPOS>MOLECULE
*****
 39 43 0 0 0
SMALL
GASTEIGER

@<TRIPOS>ATOM
      1 C           7.1375   -0.3891   -0.0973 C.3     1  UNL1       -0.0397
      2 C           5.6592   -0.1350   -0.1633 C.ar    1  UNL1       -0.0486
      3 C           5.1668    1.0081   -0.8310 C.ar    1  UNL1       -0.0582
      4 C           3.7897    1.2620   -0.9392 C.ar    1  UNL1       -0.0519
      5 C           2.8917    0.3621   -0.3848 C.ar    1  UNL1        0.0092
      6 C           3.4122   -0.7733    0.2615 C.ar    1  UNL1        0.1016
      7 C           4.7610   -1.0544    0.3860 C.ar    1  UNL1       -0.0329
      8 C           1.4282    0.4118   -0.3750 C.ar    1  UNL1        0.0092
      9 C           0.5855    1.3654   -0.9183 C.ar    1  UNL1       -0.0515
     10 C          -0.8055    1.1979   -0.7909 C.ar    1  UNL1       -0.0518
     11 C          -1.3924    0.0900   -0.1203 C.ar    1  UNL1        0.0044
     12 C          -2.8561   -0.0204   -0.0363 C.ar    1  UNL1        0.0991
     13 C          -3.5804   -0.6377    1.0232 C.ar    1  UNL1        0.1260
     14 N          -3.0944   -1.2172    2.1373 N.ar    1  UNL1       -0.1886
     15 S          -4.3909   -1.7601    3.0111 S.2     1  UNL1        0.1165
     16 N          -5.6394   -1.2851    2.0325 N.ar    1  UNL1       -0.1904
     17 C          -5.0917   -0.6723    0.9690 C.ar    1  UNL1        0.1063
     18 N          -3.6010    0.5348   -1.0527 N.ar    1  UNL1       -0.2524
     19 C          -4.9699    0.4760   -1.0607 C.ar    1  UNL1        0.0333
     20 C          -5.8111   -0.1039   -0.1082 C.ar    1  UNL1       -0.0042
     21 C          -7.2956   -0.0815   -0.2622 C.3     1  UNL1       -0.0362
     22 C          -0.5274   -0.8746    0.4178 C.ar    1  UNL1       -0.0266
     23 C           0.8384   -0.6821    0.2783 C.ar    1  UNL1        0.1019
     24 S           2.0928   -1.7646    0.8725 S.O2    1  UNL1        0.0262
     25 O           2.1063   -1.7089    2.3179 O.2     1  UNL1       -0.1643
     26 O           2.0438   -2.9910    0.1066 O.2     1  UNL1       -0.1643
     27 H           7.6920    0.5532   -0.0369 H       1  UNL1        0.0278
     28 H           7.4626   -0.9363   -0.9874 H       1  UNL1        0.0278
     29 H           7.3945   -0.9748    0.7916 H       1  UNL1        0.0278
     30 H           5.8663    1.7154   -1.2753 H       1  UNL1        0.0620
     31 H           3.4504    2.1543   -1.4567 H       1  UNL1        0.0624
     32 H           5.0974   -1.9541    0.8920 H       1  UNL1        0.0639
     33 H           0.9720    2.2345   -1.4421 H       1  UNL1        0.0624
     34 H          -1.4551    1.9574   -1.2294 H       1  UNL1        0.0624
     35 H          -5.4078    0.9541   -1.9386 H       1  UNL1        0.0833
     36 H          -7.5849   -0.5652   -1.2007 H       1  UNL1        0.0279
     37 H          -7.6576    0.9515   -0.2690 H       1  UNL1        0.0279
     38 H          -7.7956   -0.6095    0.5553 H       1  UNL1        0.0279
     39 H          -0.8913   -1.7640    0.9238 H       1  UNL1        0.0643
@<TRIPOS>BOND
     1     1     2    1
     2     2     3   ar
     3     3     4   ar
     4     4     5   ar
     5     5     6   ar
     6     6     7   ar
     7     5     8    1
     8     8     9   ar
     9     9    10   ar
    10    10    11   ar
    11    11    12    1
    12    12    13   ar
    13    13    14   ar
    14    14    15   ar
    15    15    16   ar
    16    16    17   ar
    17    12    18   ar
    18    18    19   ar
    19    19    20   ar
    20    20    21    1
    21    11    22   ar
    22    22    23   ar
    23    23    24    1
    24    24    25    2
    25    24    26    2
    26     7     2   ar
    27    24     6    1
    28    23     8   ar
    29    17    13   ar
    30    20    17   ar
    31     1    27    1
    32     1    28    1
    33     1    29    1
    34     3    30    1
    35     4    31    1
    36     7    32    1
    37     9    33    1
    38    10    34    1
    39    19    35    1
    40    21    36    1
    41    21    37    1
    42    21    38    1
    43    22    39    1
