@<TRIPOS>MOLECULE
*****
 37 40 0 0 0
SMALL
GASTEIGER

@<TRIPOS>ATOM
      1 C          -6.7980    0.5044    0.1194 C.3     1  UNL1       -0.0397
      2 C          -5.3250    0.2521    0.2644 C.ar    1  UNL1       -0.0486
      3 C          -4.8629   -0.7659    1.1276 C.ar    1  UNL1       -0.0582
      4 C          -3.4944   -1.0503    1.2652 C.ar    1  UNL1       -0.0519
      5 C          -2.5754   -0.3193    0.5271 C.ar    1  UNL1        0.0092
      6 C          -3.0673    0.6784   -0.3335 C.ar    1  UNL1        0.1016
      7 C          -4.4069    0.9843   -0.4937 C.ar    1  UNL1       -0.0329
      8 C          -1.1158   -0.4353    0.5014 C.ar    1  UNL1        0.0092
      9 C          -0.2974   -1.2962    1.2136 C.ar    1  UNL1       -0.0515
     10 C           1.0966   -1.2309    1.0271 C.ar    1  UNL1       -0.0518
     11 C           1.7048   -0.3144    0.1288 C.ar    1  UNL1        0.0037
     12 C           3.1687   -0.2561   -0.0592 C.ar    1  UNL1        0.0891
     13 N           3.6796    0.9537   -0.4069 N.ar    1  UNL1       -0.2517
     14 C           5.0223    1.0169   -0.5787 C.ar    1  UNL1        0.0493
     15 C           4.0169   -1.3528    0.0885 C.ar    1  UNL1        0.0538
     16 N           5.3631   -1.2930   -0.0811 N.ar    1  UNL1       -0.2565
     17 C           5.8585   -0.0801   -0.4191 C.ar    1  UNL1        0.0563
     18 C           7.3349    0.0476   -0.6210 C.3     1  UNL1       -0.0209
     19 C           0.8647    0.5605   -0.5808 C.ar    1  UNL1       -0.0266
     20 C          -0.5018    0.4719   -0.3763 C.ar    1  UNL1        0.1019
     21 S          -1.7263    1.4594   -1.1647 S.O2    1  UNL1        0.0262
     22 O          -1.7807    1.0970   -2.5642 O.2     1  UNL1       -0.1643
     23 O          -1.6136    2.8171   -0.6787 O.2     1  UNL1       -0.1643
     24 H          -7.3196    0.3180    1.0640 H       1  UNL1        0.0278
     25 H          -7.2150   -0.1502   -0.6520 H       1  UNL1        0.0278
     26 H          -6.9911    1.5459   -0.1582 H       1  UNL1        0.0278
     27 H          -5.5799   -1.3487    1.7049 H       1  UNL1        0.0620
     28 H          -3.1790   -1.8377    1.9430 H       1  UNL1        0.0624
     29 H          -4.7213    1.7632   -1.1815 H       1  UNL1        0.0639
     30 H          -0.7089   -2.0146    1.9169 H       1  UNL1        0.0624
     31 H           1.7124   -1.9052    1.6214 H       1  UNL1        0.0624
     32 H           5.4097    1.9926   -0.8526 H       1  UNL1        0.0848
     33 H           3.6415   -2.3391    0.3375 H       1  UNL1        0.0851
     34 H           7.8356   -0.9109   -0.4507 H       1  UNL1        0.0293
     35 H           7.7512    0.7784    0.0793 H       1  UNL1        0.0293
     36 H           7.5508    0.3677   -1.6450 H       1  UNL1        0.0293
     37 H           1.2687    1.2918   -1.2770 H       1  UNL1        0.0643
@<TRIPOS>BOND
     1     1     2    1
     2     2     3   ar
     3     3     4   ar
     4     4     5   ar
     5     5     6   ar
     6     6     7   ar
     7     5     8    1
     8     8     9   ar
     9     9    10   ar
    10    10    11   ar
    11    11    12    1
    12    12    13   ar
    13    13    14   ar
    14    12    15   ar
    15    15    16   ar
    16    16    17   ar
    17    17    18    1
    18    11    19   ar
    19    19    20   ar
    20    20    21    1
    21    21    22    2
    22    21    23    2
    23     7     2   ar
    24    21     6    1
    25    20     8   ar
    26    17    14   ar
    27     1    24    1
    28     1    25    1
    29     1    26    1
    30     3    27    1
    31     4    28    1
    32     7    29    1
    33     9    30    1
    34    10    31    1
    35    14    32    1
    36    15    33    1
    37    18    34    1
    38    18    35    1
    39    18    36    1
    40    19    37    1
