@<TRIPOS>MOLECULE
*****
 39 42 0 0 0
SMALL
GASTEIGER

@<TRIPOS>ATOM
      1 C           7.1662    0.3412   -0.0718 C.3     1  UNL1       -0.0397
      2 C           5.6745    0.3305   -0.2428 C.ar    1  UNL1       -0.0486
      3 C           5.0929    0.8661   -1.4133 C.ar    1  UNL1       -0.0582
      4 C           3.7007    0.9009   -1.5946 C.ar    1  UNL1       -0.0519
      5 C           2.8772    0.4060   -0.5945 C.ar    1  UNL1        0.0092
      6 C           3.4856   -0.1086    0.5646 C.ar    1  UNL1        0.1016
      7 C           4.8518   -0.1578    0.7762 C.ar    1  UNL1       -0.0329
      8 C           1.4146    0.3395   -0.5575 C.ar    1  UNL1        0.0092
      9 C           0.4994    0.7430   -1.5131 C.ar    1  UNL1       -0.0515
     10 C          -0.8736    0.5774   -1.2550 C.ar    1  UNL1       -0.0518
     11 C          -1.3723    0.0144   -0.0477 C.ar    1  UNL1        0.0037
     12 C          -2.8301   -0.1295    0.1596 C.ar    1  UNL1        0.0912
     13 N          -3.5891   -0.1915   -0.9660 N.ar    1  UNL1       -0.2291
     14 C          -4.9221   -0.3256   -0.8235 C.ar    1  UNL1        0.1380
     15 N          -5.6704   -0.3935   -2.0056 N.pl3   1  UNL1       -0.3417
     16 C          -3.4371   -0.1914    1.4104 C.ar    1  UNL1        0.0540
     17 N          -4.7735   -0.3280    1.5861 N.ar    1  UNL1       -0.2546
     18 C          -5.5106   -0.3978    0.4494 C.ar    1  UNL1        0.0776
     19 C          -6.9910   -0.5521    0.6244 C.3     1  UNL1       -0.0190
     20 C          -0.4335   -0.3989    0.9108 C.ar    1  UNL1       -0.0266
     21 C           0.9127   -0.2223    0.6273 C.ar    1  UNL1        0.1019
     22 S           2.2491   -0.6647    1.6845 S.O2    1  UNL1        0.0262
     23 O           2.2286    0.2146    2.8332 O.2     1  UNL1       -0.1643
     24 O           2.3076   -2.1075    1.7683 O.2     1  UNL1       -0.1643
     25 H           7.6693    0.2078   -1.0352 H       1  UNL1        0.0278
     26 H           7.4911   -0.4764    0.5803 H       1  UNL1        0.0278
     27 H           7.4851    1.2915    0.3672 H       1  UNL1        0.0278
     28 H           5.7336    1.2632   -2.2000 H       1  UNL1        0.0620
     29 H           3.2917    1.3163   -2.5109 H       1  UNL1        0.0624
     30 H           5.2583   -0.5618    1.6983 H       1  UNL1        0.0639
     31 H           0.8144    1.1798   -2.4561 H       1  UNL1        0.0624
     32 H          -1.5813    0.8973   -2.0227 H       1  UNL1        0.0624
     33 H          -6.1639   -1.2799   -2.0498 H       1  UNL1        0.1438
     34 H          -6.3548    0.3561   -2.0261 H       1  UNL1        0.1438
     35 H          -2.8701   -0.1193    2.3318 H       1  UNL1        0.0851
     36 H          -7.5183    0.2978    0.1803 H       1  UNL1        0.0294
     37 H          -7.2550   -0.5937    1.6863 H       1  UNL1        0.0294
     38 H          -7.3362   -1.4790    0.1562 H       1  UNL1        0.0294
     39 H          -0.7215   -0.8639    1.8485 H       1  UNL1        0.0643
@<TRIPOS>BOND
     1     1     2    1
     2     2     3   ar
     3     3     4   ar
     4     4     5   ar
     5     5     6   ar
     6     6     7   ar
     7     5     8    1
     8     8     9   ar
     9     9    10   ar
    10    10    11   ar
    11    11    12    1
    12    12    13   ar
    13    13    14   ar
    14    14    15    1
    15    12    16   ar
    16    16    17   ar
    17    17    18   ar
    18    18    19    1
    19    11    20   ar
    20    20    21   ar
    21    21    22    1
    22    22    23    2
    23    22    24    2
    24     7     2   ar
    25    22     6    1
    26    21     8   ar
    27    18    14   ar
    28     1    25    1
    29     1    26    1
    30     1    27    1
    31     3    28    1
    32     4    29    1
    33     7    30    1
    34     9    31    1
    35    10    32    1
    36    15    33    1
    37    15    34    1
    38    16    35    1
    39    19    36    1
    40    19    37    1
    41    19    38    1
    42    20    39    1
