@<TRIPOS>MOLECULE
*****
 37 40 0 0 0
SMALL
GASTEIGER

@<TRIPOS>ATOM
      1 C           6.8049    0.6374    0.1012 C.3     1  UNL1       -0.0397
      2 C           5.3414    0.3374    0.2518 C.ar    1  UNL1       -0.0486
      3 C           4.9028   -0.5637    1.2472 C.ar    1  UNL1       -0.0582
      4 C           3.5401   -0.8445    1.4381 C.ar    1  UNL1       -0.0519
      5 C           2.6020   -0.2133    0.6351 C.ar    1  UNL1        0.0092
      6 C           3.0688    0.6887   -0.3382 C.ar    1  UNL1        0.1016
      7 C           4.4021    0.9888   -0.5527 C.ar    1  UNL1       -0.0329
      8 C           1.1433   -0.3431    0.6502 C.ar    1  UNL1        0.0092
      9 C           0.3461   -1.1282    1.4645 C.ar    1  UNL1       -0.0515
     10 C          -1.0502   -1.0896    1.2951 C.ar    1  UNL1       -0.0518
     11 C          -1.6867   -0.2777    0.3167 C.ar    1  UNL1        0.0040
     12 C          -3.1586   -0.2815    0.1843 C.ar    1  UNL1        0.0934
     13 N          -3.8586   -0.5838    1.3021 N.ar    1  UNL1       -0.1490
     14 N          -5.2336   -0.6159    1.2882 N.ar    1  UNL1       -0.1540
     15 C          -3.8331   -0.0076   -0.9999 C.ar    1  UNL1       -0.0322
     16 C          -5.2260   -0.0384   -1.0174 C.ar    1  UNL1       -0.0369
     17 C          -5.9026   -0.3457    0.1508 C.ar    1  UNL1        0.0606
     18 C          -7.3963   -0.3937    0.1908 C.3     1  UNL1       -0.0206
     19 C          -0.8683    0.5203   -0.4984 C.ar    1  UNL1       -0.0266
     20 C           0.5036    0.4597   -0.3075 C.ar    1  UNL1        0.1019
     21 S           1.7059    1.3666   -1.2188 S.O2    1  UNL1        0.0262
     22 O           1.7248    0.8594   -2.5737 O.2     1  UNL1       -0.1643
     23 O           1.5777    2.7666   -0.8787 O.2     1  UNL1       -0.1643
     24 H           7.0903    1.4522    0.7735 H       1  UNL1        0.0278
     25 H           7.0408    0.9285   -0.9278 H       1  UNL1        0.0278
     26 H           7.4091   -0.2453    0.3356 H       1  UNL1        0.0278
     27 H           5.6338   -1.0572    1.8869 H       1  UNL1        0.0620
     28 H           3.2429   -1.5463    2.2118 H       1  UNL1        0.0624
     29 H           4.6966    1.7019   -1.3165 H       1  UNL1        0.0639
     30 H           0.7719   -1.7703    2.2299 H       1  UNL1        0.0624
     31 H          -1.6611   -1.7166    1.9474 H       1  UNL1        0.0624
     32 H          -3.2983    0.2144   -1.9170 H       1  UNL1        0.0640
     33 H          -5.7665    0.1717   -1.9346 H       1  UNL1        0.0637
     34 H          -7.7693   -1.1529   -0.5037 H       1  UNL1        0.0293
     35 H          -7.8140    0.5800   -0.0835 H       1  UNL1        0.0293
     36 H          -7.7523   -0.6461    1.1948 H       1  UNL1        0.0293
     37 H          -1.2736    1.1879   -1.2524 H       1  UNL1        0.0643
@<TRIPOS>BOND
     1     1     2    1
     2     2     3   ar
     3     3     4   ar
     4     4     5   ar
     5     5     6   ar
     6     6     7   ar
     7     5     8    1
     8     8     9   ar
     9     9    10   ar
    10    10    11   ar
    11    11    12    1
    12    12    13   ar
    13    13    14   ar
    14    12    15   ar
    15    15    16   ar
    16    16    17   ar
    17    17    18    1
    18    11    19   ar
    19    19    20   ar
    20    20    21    1
    21    21    22    2
    22    21    23    2
    23     7     2   ar
    24    21     6    1
    25    20     8   ar
    26    17    14   ar
    27     1    24    1
    28     1    25    1
    29     1    26    1
    30     3    27    1
    31     4    28    1
    32     7    29    1
    33     9    30    1
    34    10    31    1
    35    15    32    1
    36    16    33    1
    37    18    34    1
    38    18    35    1
    39    18    36    1
    40    19    37    1
