@<TRIPOS>MOLECULE
*****
 46 52 0 0 0
SMALL
GASTEIGER

@<TRIPOS>ATOM
      1 SI          4.8964    1.0300    2.3962 Si      1  UNL1        0.0000
      2 C           5.7999    0.9227    0.7588 C.2     1  UNL1        0.0000
      3 C           4.9509    0.5811   -0.2280 C.ar    1  UNL1        0.0000
      4 C           5.3115    0.4105   -1.6208 C.ar    1  UNL1        0.0000
      5 C           4.3517    0.0689   -2.5008 C.ar    1  UNL1        0.0000
      6 C           2.9618   -0.1342   -2.0952 C.ar    1  UNL1        0.0000
      7 C           2.5453   -0.0049   -0.8132 C.ar    1  UNL1        0.0000
      8 C           1.1271   -0.2177   -0.5329 C.ar    1  UNL1        0.0000
      9 C           0.1320    0.7603   -0.6601 C.ar    1  UNL1        0.0000
     10 C          -1.2687    0.5202   -0.3588 C.ar    1  UNL1        0.0000
     11 C          -2.2484    1.5290   -0.4850 C.ar    1  UNL1        0.0000
     12 C          -2.0488    2.8317   -0.8849 C.ar    1  UNL1        0.0000
     13 N          -3.2690    3.4673   -0.8628 N.ar    1  UNL1        0.0000
     14 C          -4.2473    2.5905   -0.4556 C.ar    1  UNL1        0.0000
     15 C          -3.6399    1.3795   -0.2138 C.ar    1  UNL1        0.0000
     16 C          -4.2712    0.1937    0.2175 C.ar    1  UNL1        0.0000
     17 C          -5.6543    0.0684    0.4697 C.ar    1  UNL1        0.0000
     18 C          -6.1262   -1.1607    0.8690 C.ar    1  UNL1        0.0000
     19 N          -5.3367   -2.2362    1.0204 N.ar    1  UNL1        0.0000
     20 C          -4.0056   -2.0701    0.7666 C.ar    1  UNL1        0.0000
     21 C          -3.3535   -0.8911    0.3689 C.ar    1  UNL1        0.0000
     22 C          -1.8773   -0.7346    0.1063 C.ar    1  UNL1        0.0000
     23 C          -0.7943   -1.6769    0.2349 C.ar    1  UNL1        0.0000
     24 C          -0.8367   -2.9767    0.6905 C.ar    1  UNL1        0.0000
     25 N           0.4389   -3.5026    0.6440 N.ar    1  UNL1        0.0000
     26 C           1.3190   -2.5605    0.1840 C.ar    1  UNL1        0.0000
     27 C           0.5957   -1.4195   -0.0686 C.ar    1  UNL1        0.0000
     28 C           3.5432    0.3737    0.1915 C.ar    1  UNL1        0.0000
     29 C           3.3217    0.5619    1.5083 C.2     1  UNL1        0.0000
     30 H           5.3460   -0.0110    3.3525 H       1  UNL1        0.0000
     31 H           4.8648    2.4140    2.9287 H       1  UNL1        0.0000
     32 H           6.8566    1.1200    0.6795 H       1  UNL1        0.0000
     33 H           6.3389    0.5588   -1.9318 H       1  UNL1        0.0000
     34 H           4.5887   -0.0672   -3.5514 H       1  UNL1        0.0000
     35 H           2.2659   -0.4053   -2.8855 H       1  UNL1        0.0000
     36 H           0.4401    1.7480   -0.9979 H       1  UNL1        0.0000
     37 H          -1.1646    3.3778   -1.1829 H       1  UNL1        0.0000
     38 H          -3.4227    4.4364   -1.1103 H       1  UNL1        0.0000
     39 H          -5.2738    2.9213   -0.3816 H       1  UNL1        0.0000
     40 H          -6.3364    0.9011    0.3547 H       1  UNL1        0.0000
     41 H          -7.1793   -1.3201    1.0784 H       1  UNL1        0.0000
     42 H          -3.4685   -2.9974    0.8941 H       1  UNL1        0.0000
     43 H          -1.6182   -3.6165    1.0620 H       1  UNL1        0.0000
     44 H           0.6877   -4.4430    0.9229 H       1  UNL1        0.0000
     45 H           2.3733   -2.7856    0.0893 H       1  UNL1        0.0000
     46 H           2.3844    0.4647    2.0332 H       1  UNL1        0.0000
@<TRIPOS>BOND
     1     1     2    1
     2     2     3    2
     3     3     4   ar
     4     4     5   ar
     5     5     6   ar
     6     6     7   ar
     7     7     8    1
     8     8     9   ar
     9     9    10   ar
    10    10    11   ar
    11    11    12   ar
    12    12    13   ar
    13    13    14   ar
    14    14    15   ar
    15    15    16   ar
    16    16    17   ar
    17    17    18   ar
    18    18    19   ar
    19    19    20   ar
    20    20    21   ar
    21    21    22   ar
    22    22    23   ar
    23    23    24   ar
    24    24    25   ar
    25    25    26   ar
    26    26    27   ar
    27     7    28   ar
    28    28    29    2
    29    29     1    1
    30    28     3   ar
    31    27     8   ar
    32    22    10   ar
    33    27    23   ar
    34    15    11   ar
    35    21    16   ar
    36     1    30    1
    37     1    31    1
    38     2    32    1
    39     4    33    1
    40     5    34    1
    41     6    35    1
    42     9    36    1
    43    12    37    1
    44    13    38    1
    45    14    39    1
    46    17    40    1
    47    18    41    1
    48    20    42    1
    49    24    43    1
    50    25    44    1
    51    26    45    1
    52    29    46    1
