@<TRIPOS>MOLECULE
*****
 36 39 0 0 0
SMALL
GASTEIGER

@<TRIPOS>ATOM
      1 C          -6.4891    0.3036    0.0423 C.3     1  UNL1       -0.0397
      2 C          -5.0187    0.0401   -0.1092 C.ar    1  UNL1       -0.0486
      3 C          -4.5602   -0.8739   -1.0836 C.ar    1  UNL1       -0.0582
      4 C          -3.1910   -1.1221   -1.2743 C.ar    1  UNL1       -0.0519
      5 C          -2.2667   -0.4450   -0.4927 C.ar    1  UNL1        0.0092
      6 C          -2.7537    0.4683    0.4594 C.ar    1  UNL1        0.1016
      7 C          -4.0938    0.7372    0.6733 C.ar    1  UNL1       -0.0329
      8 C          -0.8050   -0.5349   -0.5116 C.ar    1  UNL1        0.0092
      9 C           0.0089   -1.3224   -1.3099 C.ar    1  UNL1       -0.0515
     10 C           1.4048   -1.2439   -1.1526 C.ar    1  UNL1       -0.0504
     11 C           2.0081   -0.3847   -0.2030 C.ar    1  UNL1        0.0191
     12 C           3.4633   -0.3338   -0.0720 C.ar    1  UNL1        0.1352
     13 O           3.9550    0.5256    0.8714 O.2     1  UNL1       -0.4600
     14 C           4.5181   -0.9716   -0.6973 C.ar    1  UNL1       -0.0156
     15 C           5.7072   -0.4769   -0.1064 C.ar    1  UNL1       -0.0204
     16 C           5.3126    0.4349    0.8461 C.ar    1  UNL1        0.1027
     17 C           6.0409    1.2929    1.8005 C.3     1  UNL1       -0.0063
     18 C           1.1845    0.4105    0.6031 C.ar    1  UNL1       -0.0252
     19 C          -0.1844    0.3101    0.4238 C.ar    1  UNL1        0.1020
     20 S          -1.4057    1.2067    1.3175 S.O2    1  UNL1        0.0262
     21 O          -1.4185    0.7353    2.6851 O.2     1  UNL1       -0.1643
     22 O          -1.3281    2.6005    0.9377 O.2     1  UNL1       -0.1643
     23 H          -6.8001    1.0935   -0.6483 H       1  UNL1        0.0278
     24 H          -6.7277    0.6137    1.0651 H       1  UNL1        0.0278
     25 H          -7.0700   -0.6007   -0.1669 H       1  UNL1        0.0278
     26 H          -5.2805   -1.4036   -1.7061 H       1  UNL1        0.0620
     27 H          -2.8787   -1.8356   -2.0309 H       1  UNL1        0.0624
     28 H          -4.4035    1.4610    1.4208 H       1  UNL1        0.0639
     29 H          -0.4076   -1.9969   -2.0522 H       1  UNL1        0.0624
     30 H           2.0250   -1.8715   -1.7903 H       1  UNL1        0.0625
     31 H           4.4462   -1.7067   -1.4857 H       1  UNL1        0.0655
     32 H           6.7251   -0.7511   -0.3455 H       1  UNL1        0.0652
     33 H           5.7526    1.0526    2.8284 H       1  UNL1        0.0308
     34 H           5.8161    2.3478    1.6155 H       1  UNL1        0.0308
     35 H           7.1223    1.1533    1.7080 H       1  UNL1        0.0308
     36 H           1.5922    1.0877    1.3481 H       1  UNL1        0.0644
@<TRIPOS>BOND
     1     1     2    1
     2     2     3   ar
     3     3     4   ar
     4     4     5   ar
     5     5     6   ar
     6     6     7   ar
     7     5     8    1
     8     8     9   ar
     9     9    10   ar
    10    10    11   ar
    11    11    12    1
    12    12    13   ar
    13    12    14   ar
    14    14    15   ar
    15    15    16   ar
    16    16    17    1
    17    11    18   ar
    18    18    19   ar
    19    19    20    1
    20    20    21    2
    21    20    22    2
    22     7     2   ar
    23    20     6    1
    24    19     8   ar
    25    16    13   ar
    26     1    23    1
    27     1    24    1
    28     1    25    1
    29     3    26    1
    30     4    27    1
    31     7    28    1
    32     9    29    1
    33    10    30    1
    34    14    31    1
    35    15    32    1
    36    17    33    1
    37    17    34    1
    38    17    35    1
    39    18    36    1
