@<TRIPOS>MOLECULE
*****
 43 47 0 0 0
SMALL
GASTEIGER

@<TRIPOS>ATOM
      1 C          -8.2613   -0.7632    0.7187 C.3     1  UNL1       -0.0397
      2 C          -6.7937   -0.6307    0.4302 C.ar    1  UNL1       -0.0486
      3 C          -6.3543   -0.3293   -0.8780 C.ar    1  UNL1       -0.0582
      4 C          -4.9891   -0.2278   -1.1915 C.ar    1  UNL1       -0.0519
      5 C          -4.0497   -0.4387   -0.1933 C.ar    1  UNL1        0.0092
      6 C          -4.5179   -0.7502    1.0959 C.ar    1  UNL1        0.1016
      7 C          -5.8537   -0.8585    1.4392 C.ar    1  UNL1       -0.0329
      8 C          -2.5884   -0.3900   -0.2813 C.ar    1  UNL1        0.0092
      9 C          -1.7904   -0.1196   -1.3815 C.ar    1  UNL1       -0.0515
     10 C          -0.3923   -0.1305   -1.2316 C.ar    1  UNL1       -0.0528
     11 C           0.2266   -0.4057    0.0116 C.ar    1  UNL1       -0.0094
     12 C           1.6895   -0.4257    0.1488 C.ar    1  UNL1        0.0200
     13 S           2.6481    0.8150   -0.5420 S.2     1  UNL1       -0.0877
     14 C           2.4791   -1.3372    0.8217 C.ar    1  UNL1       -0.0463
     15 C           3.8671   -1.0171    0.7504 C.ar    1  UNL1       -0.0458
     16 C           4.1183    0.1357    0.0280 C.ar    1  UNL1        0.0265
     17 C           5.4149    0.7334   -0.2199 C.ar    1  UNL1        0.0262
     18 S           5.7163    1.8169   -1.5196 S.2     1  UNL1       -0.0930
     19 C           6.5738    0.5213    0.5079 C.ar    1  UNL1       -0.0462
     20 C           7.6911    1.2495    0.0028 C.ar    1  UNL1       -0.0512
     21 C           7.3630    1.9999   -1.1042 C.ar    1  UNL1       -0.0127
     22 C           8.2390    2.8909   -1.9154 C.3     1  UNL1       -0.0334
     23 C          -0.5774   -0.6837    1.1226 C.ar    1  UNL1       -0.0276
     24 C          -1.9493   -0.6646    0.9400 C.ar    1  UNL1        0.1019
     25 S          -3.1538   -0.9812    2.1825 S.O2    1  UNL1        0.0262
     26 O          -3.1291    0.1068    3.1352 O.2     1  UNL1       -0.1643
     27 O          -3.0800   -2.3800    2.5446 O.2     1  UNL1       -0.1643
     28 H          -8.8434   -0.0730    0.0991 H       1  UNL1        0.0278
     29 H          -8.4777   -0.5220    1.7648 H       1  UNL1        0.0278
     30 H          -8.5908   -1.7869    0.5165 H       1  UNL1        0.0278
     31 H          -7.0867   -0.1694   -1.6686 H       1  UNL1        0.0620
     32 H          -4.6916    0.0108   -2.2083 H       1  UNL1        0.0624
     33 H          -6.1492   -1.1095    2.4532 H       1  UNL1        0.0639
     34 H          -2.2203    0.0969   -2.3551 H       1  UNL1        0.0624
     35 H           0.2199    0.0710   -2.1102 H       1  UNL1        0.0624
     36 H           2.0849   -2.2052    1.3371 H       1  UNL1        0.0629
     37 H           4.6425   -1.6198    1.2073 H       1  UNL1        0.0629
     38 H           6.6261   -0.1226    1.3770 H       1  UNL1        0.0629
     39 H           8.6841    1.2214    0.4355 H       1  UNL1        0.0626
     40 H           8.2829    2.5508   -2.9554 H       1  UNL1        0.0283
     41 H           7.8674    3.9208   -1.8992 H       1  UNL1        0.0283
     42 H           9.2610    2.8978   -1.5223 H       1  UNL1        0.0283
     43 H          -0.1555   -0.8966    2.1000 H       1  UNL1        0.0643
@<TRIPOS>BOND
     1     1     2    1
     2     2     3   ar
     3     3     4   ar
     4     4     5   ar
     5     5     6   ar
     6     6     7   ar
     7     5     8    1
     8     8     9   ar
     9     9    10   ar
    10    10    11   ar
    11    11    12    1
    12    12    13   ar
    13    12    14   ar
    14    14    15   ar
    15    15    16   ar
    16    16    17    1
    17    17    18   ar
    18    17    19   ar
    19    19    20   ar
    20    20    21   ar
    21    21    22    1
    22    11    23   ar
    23    23    24   ar
    24    24    25    1
    25    25    26    2
    26    25    27    2
    27     7     2   ar
    28    25     6    1
    29    24     8   ar
    30    16    13   ar
    31    21    18   ar
    32     1    28    1
    33     1    29    1
    34     1    30    1
    35     3    31    1
    36     4    32    1
    37     7    33    1
    38     9    34    1
    39    10    35    1
    40    14    36    1
    41    15    37    1
    42    19    38    1
    43    20    39    1
    44    22    40    1
    45    22    41    1
    46    22    42    1
    47    23    43    1
