@<TRIPOS>MOLECULE
*****
 36 39 0 0 0
SMALL
GASTEIGER

@<TRIPOS>ATOM
      1 C           6.6270   -0.1053    0.1219 C.3     1  UNL1       -0.0397
      2 C           5.1457   -0.1288   -0.1224 C.ar    1  UNL1       -0.0486
      3 C           4.6453   -0.0807   -1.4423 C.ar    1  UNL1       -0.0582
      4 C           3.2661   -0.0695   -1.7073 C.ar    1  UNL1       -0.0519
      5 C           2.3742   -0.0963   -0.6454 C.ar    1  UNL1        0.0092
      6 C           2.9031   -0.1304    0.6573 C.ar    1  UNL1        0.1016
      7 C           4.2543   -0.1418    0.9542 C.ar    1  UNL1       -0.0329
      8 C           0.9097   -0.0887   -0.6744 C.ar    1  UNL1        0.0092
      9 C           0.0610   -0.0641   -1.7699 C.ar    1  UNL1       -0.0515
     10 C          -1.3285   -0.0638   -1.5571 C.ar    1  UNL1       -0.0528
     11 C          -1.8878   -0.0834   -0.2569 C.ar    1  UNL1       -0.0095
     12 C          -3.3474   -0.0928   -0.0948 C.ar    1  UNL1        0.0196
     13 S          -4.1056    0.9642    1.0245 S.2     1  UNL1       -0.0935
     14 C          -4.2859   -0.8539   -0.7670 C.ar    1  UNL1       -0.0467
     15 C          -5.6202   -0.5759   -0.3497 C.ar    1  UNL1       -0.0512
     16 C          -5.6680    0.3969    0.6251 C.ar    1  UNL1       -0.0127
     17 C          -6.8614    0.9628    1.3146 C.3     1  UNL1       -0.0334
     18 C          -1.0334   -0.1124    0.8507 C.ar    1  UNL1       -0.0276
     19 C           0.3289   -0.1126    0.6057 C.ar    1  UNL1        0.1019
     20 S           1.5914   -0.1495    1.8303 S.O2    1  UNL1        0.0262
     21 O           1.5865    1.1124    2.5374 O.2     1  UNL1       -0.1643
     22 O           1.5688   -1.4439    2.4759 O.2     1  UNL1       -0.1643
     23 H           6.8766   -0.6093    1.0615 H       1  UNL1        0.0278
     24 H           6.9813    0.9289    0.1704 H       1  UNL1        0.0278
     25 H           7.1617   -0.6272   -0.6786 H       1  UNL1        0.0278
     26 H           5.3402   -0.0517   -2.2809 H       1  UNL1        0.0620
     27 H           2.9210   -0.0362   -2.7363 H       1  UNL1        0.0624
     28 H           4.5976   -0.1605    1.9839 H       1  UNL1        0.0639
     29 H           0.4458   -0.0433   -2.7852 H       1  UNL1        0.0624
     30 H          -1.9854   -0.0347   -2.4259 H       1  UNL1        0.0624
     31 H          -4.0290   -1.5891   -1.5200 H       1  UNL1        0.0629
     32 H          -6.4993   -1.0688   -0.7475 H       1  UNL1        0.0626
     33 H          -6.9386    2.0404    1.1364 H       1  UNL1        0.0283
     34 H          -6.8049    0.7895    2.3943 H       1  UNL1        0.0283
     35 H          -7.7821    0.4963    0.9487 H       1  UNL1        0.0283
     36 H          -1.4088   -0.1437    1.8689 H       1  UNL1        0.0643
@<TRIPOS>BOND
     1     1     2    1
     2     2     3   ar
     3     3     4   ar
     4     4     5   ar
     5     5     6   ar
     6     6     7   ar
     7     5     8    1
     8     8     9   ar
     9     9    10   ar
    10    10    11   ar
    11    11    12    1
    12    12    13   ar
    13    12    14   ar
    14    14    15   ar
    15    15    16   ar
    16    16    17    1
    17    11    18   ar
    18    18    19   ar
    19    19    20    1
    20    20    21    2
    21    20    22    2
    22     7     2   ar
    23    20     6    1
    24    19     8   ar
    25    16    13   ar
    26     1    23    1
    27     1    24    1
    28     1    25    1
    29     3    26    1
    30     4    27    1
    31     7    28    1
    32     9    29    1
    33    10    30    1
    34    14    31    1
    35    15    32    1
    36    17    33    1
    37    17    34    1
    38    17    35    1
    39    18    36    1
