@<TRIPOS>MOLECULE
*****
 39 42 0 0 0
SMALL
GASTEIGER

@<TRIPOS>ATOM
      1 C          -6.9425   -0.2098   -0.5109 C.3     1  UNL1       -0.0397
      2 C          -5.4475   -0.3304   -0.4429 C.ar    1  UNL1       -0.0486
      3 C          -4.8111   -1.5068   -0.8971 C.ar    1  UNL1       -0.0582
      4 C          -3.4180   -1.6671   -0.8210 C.ar    1  UNL1       -0.0519
      5 C          -2.6498   -0.6485   -0.2770 C.ar    1  UNL1        0.0092
      6 C          -3.3137    0.5047    0.1787 C.ar    1  UNL1        0.1016
      7 C          -4.6826    0.6955    0.1195 C.ar    1  UNL1       -0.0329
      8 C          -1.1980   -0.5903   -0.0926 C.ar    1  UNL1        0.0092
      9 C          -0.2395   -1.5348   -0.4205 C.ar    1  UNL1       -0.0516
     10 C           1.1121   -1.2607   -0.1458 C.ar    1  UNL1       -0.0533
     11 C           1.5348   -0.0482    0.4558 C.ar    1  UNL1       -0.0133
     12 C           2.9611    0.2013    0.7364 C.ar    1  UNL1        0.0176
     13 C           3.9519    0.0250   -0.2452 C.ar    1  UNL1        0.1340
     14 C           5.3097    0.2562    0.0147 C.ar    1  UNL1       -0.0147
     15 C           6.3233    0.0832   -1.0757 C.3     1  UNL1       -0.0370
     16 C           5.6894    0.6945    1.2865 C.ar    1  UNL1       -0.0561
     17 C           4.7285    0.8755    2.2800 C.ar    1  UNL1       -0.0608
     18 C           3.3796    0.6298    2.0082 C.ar    1  UNL1       -0.0513
     19 F           3.5988   -0.3683   -1.4810 F       1  UNL1       -0.2046
     20 C           0.5606    0.9055    0.7844 C.ar    1  UNL1       -0.0281
     21 C          -0.7612    0.6052    0.5020 C.ar    1  UNL1        0.1019
     22 S          -2.1422    1.6444    0.8300 S.O2    1  UNL1        0.0262
     23 O          -2.3229    1.7269    2.2632 O.2     1  UNL1       -0.1643
     24 O          -2.0749    2.7928   -0.0469 O.2     1  UNL1       -0.1643
     25 H          -7.3355   -0.7325   -1.3893 H       1  UNL1        0.0278
     26 H          -7.3932   -0.6389    0.3892 H       1  UNL1        0.0278
     27 H          -7.2471    0.8388   -0.5936 H       1  UNL1        0.0278
     28 H          -5.4090   -2.3139   -1.3192 H       1  UNL1        0.0620
     29 H          -2.9655   -2.5845   -1.1857 H       1  UNL1        0.0624
     30 H          -5.1341    1.6081    0.4960 H       1  UNL1        0.0639
     31 H          -0.5080   -2.4794   -0.8840 H       1  UNL1        0.0624
     32 H           1.8539   -2.0159   -0.4075 H       1  UNL1        0.0624
     33 H           7.3374    0.0158   -0.6679 H       1  UNL1        0.0278
     34 H           6.2824    0.9331   -1.7639 H       1  UNL1        0.0278
     35 H           6.1354   -0.8401   -1.6336 H       1  UNL1        0.0278
     36 H           6.7343    0.8967    1.5119 H       1  UNL1        0.0621
     37 H           5.0286    1.2096    3.2707 H       1  UNL1        0.0618
     38 H           2.6533    0.7690    2.8072 H       1  UNL1        0.0624
     39 H           0.8211    1.8585    1.2356 H       1  UNL1        0.0643
@<TRIPOS>BOND
     1     1     2    1
     2     2     3   ar
     3     3     4   ar
     4     4     5   ar
     5     5     6   ar
     6     6     7   ar
     7     5     8    1
     8     8     9   ar
     9     9    10   ar
    10    10    11   ar
    11    11    12    1
    12    12    13   ar
    13    13    14   ar
    14    14    15    1
    15    14    16   ar
    16    16    17   ar
    17    17    18   ar
    18    13    19    1
    19    11    20   ar
    20    20    21   ar
    21    21    22    1
    22    22    23    2
    23    22    24    2
    24     7     2   ar
    25    22     6    1
    26    21     8   ar
    27    18    12   ar
    28     1    25    1
    29     1    26    1
    30     1    27    1
    31     3    28    1
    32     4    29    1
    33     7    30    1
    34     9    31    1
    35    10    32    1
    36    15    33    1
    37    15    34    1
    38    15    35    1
    39    16    36    1
    40    17    37    1
    41    18    38    1
    42    20    39    1
