@<TRIPOS>MOLECULE
*****
 40 43 0 0 0
SMALL
GASTEIGER

@<TRIPOS>ATOM
      1 C          -6.8626   -0.8982   -0.5290 C.3     1  UNL1       -0.0397
      2 C          -5.4398   -0.5140   -0.2421 C.ar    1  UNL1       -0.0486
      3 C          -5.1084    0.1112    0.9803 C.ar    1  UNL1       -0.0582
      4 C          -3.7843    0.4578    1.2953 C.ar    1  UNL1       -0.0519
      5 C          -2.7764    0.1693    0.3872 C.ar    1  UNL1        0.0092
      6 C          -3.1362   -0.4657   -0.8151 C.ar    1  UNL1        0.1016
      7 C          -4.4288   -0.8210   -1.1571 C.ar    1  UNL1       -0.0329
      8 C          -1.3393    0.4313    0.4950 C.ar    1  UNL1        0.0092
      9 C          -0.6393    1.0290    1.5317 C.ar    1  UNL1       -0.0516
     10 C           0.7533    1.1780    1.4193 C.ar    1  UNL1       -0.0532
     11 C           1.4646    0.7409    0.2745 C.ar    1  UNL1       -0.0114
     12 C           2.9261    0.9136    0.1895 C.ar    1  UNL1        0.0399
     13 C           3.8153   -0.1693    0.3971 C.ar    1  UNL1        0.0397
     14 N           3.3213   -1.4807    0.5753 N.pl3   1  UNL1       -0.3572
     15 C           5.1976    0.0309    0.2151 C.ar    1  UNL1       -0.0110
     16 C           6.1953   -1.0857    0.3160 C.3     1  UNL1       -0.0365
     17 C           5.6416    1.3210   -0.0588 C.ar    1  UNL1        0.0339
     18 N           4.8348    2.3880   -0.2005 N.ar    1  UNL1       -0.2425
     19 C           3.5091    2.1557   -0.0902 C.ar    1  UNL1        0.1386
     20 CL          2.5782    3.5857   -0.3556 Cl      1  UNL1       -0.0613
     21 C           0.7585    0.1339   -0.7723 C.ar    1  UNL1       -0.0280
     22 C          -0.6108   -0.0007   -0.6273 C.ar    1  UNL1        0.1019
     23 S          -1.7008   -0.7366   -1.7962 S.O2    1  UNL1        0.0262
     24 O          -1.4340   -2.1581   -1.8381 O.2     1  UNL1       -0.1643
     25 O          -1.7703    0.1137   -2.9639 O.2     1  UNL1       -0.1643
     26 H          -7.0545   -0.9114   -1.6071 H       1  UNL1        0.0278
     27 H          -7.0709   -1.8918   -0.1207 H       1  UNL1        0.0278
     28 H          -7.5573   -0.1781   -0.0842 H       1  UNL1        0.0278
     29 H          -5.8943    0.3352    1.7009 H       1  UNL1        0.0620
     30 H          -3.5714    0.9435    2.2429 H       1  UNL1        0.0624
     31 H          -4.6387   -1.3161   -2.1002 H       1  UNL1        0.0639
     32 H          -1.1442    1.3860    2.4246 H       1  UNL1        0.0624
     33 H           1.2934    1.6516    2.2395 H       1  UNL1        0.0624
     34 H           2.3861   -1.5271    0.9717 H       1  UNL1        0.1423
     35 H           3.9581   -2.1189    1.0405 H       1  UNL1        0.1423
     36 H           5.9516   -1.8821   -0.3946 H       1  UNL1        0.0279
     37 H           7.2095   -0.7424    0.0851 H       1  UNL1        0.0279
     38 H           6.2068   -1.4929    1.3320 H       1  UNL1        0.0279
     39 H           6.6995    1.5387   -0.1873 H       1  UNL1        0.0833
     40 H           1.2614   -0.2242   -1.6666 H       1  UNL1        0.0643
@<TRIPOS>BOND
     1     1     2    1
     2     2     3   ar
     3     3     4   ar
     4     4     5   ar
     5     5     6   ar
     6     6     7   ar
     7     5     8    1
     8     8     9   ar
     9     9    10   ar
    10    10    11   ar
    11    11    12    1
    12    12    13   ar
    13    13    14    1
    14    13    15   ar
    15    15    16    1
    16    15    17   ar
    17    17    18   ar
    18    18    19   ar
    19    19    20    1
    20    11    21   ar
    21    21    22   ar
    22    22    23    1
    23    23    24    2
    24    23    25    2
    25     7     2   ar
    26    23     6    1
    27    22     8   ar
    28    19    12   ar
    29     1    26    1
    30     1    27    1
    31     1    28    1
    32     3    29    1
    33     4    30    1
    34     7    31    1
    35     9    32    1
    36    10    33    1
    37    14    34    1
    38    14    35    1
    39    16    36    1
    40    16    37    1
    41    16    38    1
    42    17    39    1
    43    21    40    1
