@<TRIPOS>MOLECULE
*****
 41 46 0 0 0
SMALL
GASTEIGER

@<TRIPOS>ATOM
      1 C          -7.0909   -0.2153    1.8734 C.3     1  UNL1       -0.0397
      2 C          -5.6063   -0.1070    1.6867 C.ar    1  UNL1       -0.0486
      3 C          -4.8162    0.5508    2.6552 C.ar    1  UNL1       -0.0582
      4 C          -3.4290    0.7006    2.4942 C.ar    1  UNL1       -0.0519
      5 C          -2.8218    0.1989    1.3525 C.ar    1  UNL1        0.0092
      6 C          -3.6350   -0.4376    0.4021 C.ar    1  UNL1        0.1016
      7 C          -5.0038   -0.6025    0.5265 C.ar    1  UNL1       -0.0329
      8 C          -1.4108    0.2417    0.9667 C.ar    1  UNL1        0.0092
      9 C          -0.3430    0.7826    1.6618 C.ar    1  UNL1       -0.0516
     10 C           0.9378    0.7111    1.0939 C.ar    1  UNL1       -0.0532
     11 C           1.1840    0.1153   -0.1690 C.ar    1  UNL1       -0.0118
     12 C           2.5577    0.0680   -0.7108 C.ar    1  UNL1        0.0385
     13 C           3.4230    1.1991   -0.8308 C.ar    1  UNL1        0.1100
     14 N           3.0104    2.4471   -0.4937 N.2     1  UNL1       -0.1901
     15 S           4.3791    3.4488   -0.7681 S.3     1  UNL1        0.1165
     16 N           5.4778    2.2668   -1.3581 N.2     1  UNL1       -0.1904
     17 C           4.7797    1.1061   -1.3199 C.ar    1  UNL1        0.1055
     18 C           5.3797   -0.1137   -1.7423 C.ar    1  UNL1        0.0059
     19 C           6.7918   -0.1452   -2.2465 C.3     1  UNL1       -0.0355
     20 C           4.5483   -1.2599   -1.6416 C.ar    1  UNL1        0.1055
     21 N           4.9084   -2.5185   -1.9805 N.ar    1  UNL1       -0.1904
     22 S           3.6096   -3.4836   -1.6650 S.2     1  UNL1        0.1165
     23 N           2.5231   -2.3875   -1.0884 N.ar    1  UNL1       -0.1901
     24 C           3.1286   -1.1758   -1.1198 C.ar    1  UNL1        0.1100
     25 C           0.0966   -0.4236   -0.8721 C.ar    1  UNL1       -0.0280
     26 C          -1.1541   -0.3509   -0.2850 C.ar    1  UNL1        0.1019
     27 S          -2.6481   -0.9758   -0.9588 S.O2    1  UNL1        0.0262
     28 O          -2.6405   -2.4247   -0.9307 O.2     1  UNL1       -0.1643
     29 O          -3.0509   -0.2023   -2.1147 O.2     1  UNL1       -0.1643
     30 H          -7.5844    0.6743    1.4702 H       1  UNL1        0.0278
     31 H          -7.3439   -0.3118    2.9344 H       1  UNL1        0.0278
     32 H          -7.4858   -1.1005    1.3637 H       1  UNL1        0.0278
     33 H          -5.2834    0.9585    3.5499 H       1  UNL1        0.0620
     34 H          -2.8485    1.2130    3.2561 H       1  UNL1        0.0624
     35 H          -5.5720   -1.0962   -0.2548 H       1  UNL1        0.0639
     36 H          -0.4625    1.2722    2.6212 H       1  UNL1        0.0624
     37 H           1.7828    1.1564    1.6240 H       1  UNL1        0.0624
     38 H           7.4831    0.1946   -1.4684 H       1  UNL1        0.0279
     39 H           6.8971    0.4939   -3.1293 H       1  UNL1        0.0279
     40 H           7.0957   -1.1557   -2.5363 H       1  UNL1        0.0279
     41 H           0.2364   -0.8757   -1.8482 H       1  UNL1        0.0643
@<TRIPOS>BOND
     1     1     2    1
     2     2     3   ar
     3     3     4   ar
     4     4     5   ar
     5     5     6   ar
     6     6     7   ar
     7     5     8    1
     8     8     9   ar
     9     9    10   ar
    10    10    11   ar
    11    11    12    1
    12    12    13   ar
    13    13    14    1
    14    14    15    2
    15    15    16    2
    16    13    17   ar
    17    17    18   ar
    18    18    19    1
    19    18    20   ar
    20    20    21   ar
    21    21    22   ar
    22    22    23   ar
    23    23    24   ar
    24    11    25   ar
    25    25    26   ar
    26    26    27    1
    27    27    28    2
    28    27    29    2
    29     7     2   ar
    30    27     6    1
    31    26     8   ar
    32    24    12   ar
    33    17    16    1
    34    24    20   ar
    35     1    30    1
    36     1    31    1
    37     1    32    1
    38     3    33    1
    39     4    34    1
    40     7    35    1
    41     9    36    1
    42    10    37    1
    43    19    38    1
    44    19    39    1
    45    19    40    1
    46    25    41    1
