@<TRIPOS>MOLECULE
*****
 46 49 0 0 0
SMALL
GASTEIGER

@<TRIPOS>ATOM
      1 C           7.7107   -0.5580    0.9891 C.3     1  UNL1       -0.0397
      2 C           6.2735   -0.5230    0.5558 C.ar    1  UNL1       -0.0486
      3 C           5.8578   -1.2580   -0.5765 C.ar    1  UNL1       -0.0582
      4 C           4.5167   -1.2733   -0.9932 C.ar    1  UNL1       -0.0519
      5 C           3.5762   -0.5567   -0.2683 C.ar    1  UNL1        0.0092
      6 C           4.0186    0.1542    0.8619 C.ar    1  UNL1        0.1016
      7 C           5.3302    0.1908    1.3004 C.ar    1  UNL1       -0.0329
      8 C           2.1366   -0.4270   -0.5055 C.ar    1  UNL1        0.0092
      9 C           1.3664   -0.9842   -1.5134 C.ar    1  UNL1       -0.0516
     10 C          -0.0141   -0.7213   -1.5417 C.ar    1  UNL1       -0.0532
     11 C          -0.6483    0.0970   -0.5742 C.ar    1  UNL1       -0.0125
     12 C          -2.1031    0.3375   -0.6274 C.ar    1  UNL1        0.0246
     13 C          -2.9094   -0.0668    0.4530 C.ar    1  UNL1       -0.0384
     14 C          -4.2928    0.1443    0.4367 C.ar    1  UNL1        0.0390
     15 C          -5.1713   -0.2714    1.5647 C.2     1  UNL1        0.2574
     16 N          -4.7327   -1.3447    2.3326 N.am    1  UNL1       -0.2496
     17 N          -5.5811   -1.8498    3.3440 N.3     1  UNL1       -0.2541
     18 O          -6.2410    0.2989    1.7652 O.2     1  UNL1       -0.2689
     19 C          -4.8822    0.7872   -0.6585 C.ar    1  UNL1       -0.0432
     20 C          -4.1114    1.1998   -1.7554 C.ar    1  UNL1       -0.0077
     21 C          -4.7932    1.8750   -2.9115 C.3     1  UNL1       -0.0362
     22 C          -2.7252    0.9729   -1.7234 C.ar    1  UNL1        0.1275
     23 O          -1.9253    1.3789   -2.7615 O.3     1  UNL1       -0.5059
     24 C           0.1325    0.6607    0.4437 C.ar    1  UNL1       -0.0280
     25 C           1.4884    0.3824    0.4432 C.ar    1  UNL1        0.1019
     26 S           2.6568    0.9716    1.6186 S.O2    1  UNL1        0.0262
     27 O           2.3838    0.3376    2.8903 O.2     1  UNL1       -0.1643
     28 O           2.8137    2.3984    1.4396 O.2     1  UNL1       -0.1643
     29 H           7.8808   -1.4131    1.6503 H       1  UNL1        0.0278
     30 H           7.9813    0.3601    1.5212 H       1  UNL1        0.0278
     31 H           8.3762   -0.6398    0.1234 H       1  UNL1        0.0278
     32 H           6.5900   -1.8289   -1.1465 H       1  UNL1        0.0620
     33 H           4.2374   -1.8466   -1.8721 H       1  UNL1        0.0624
     34 H           5.6052    0.7544    2.1866 H       1  UNL1        0.0639
     35 H           1.8047   -1.6149   -2.2810 H       1  UNL1        0.0624
     36 H          -0.6114   -1.1591   -2.3417 H       1  UNL1        0.0624
     37 H          -2.4350   -0.5313    1.3145 H       1  UNL1        0.0632
     38 H          -3.9716   -1.9378    2.0097 H       1  UNL1        0.1690
     39 H          -6.5460   -1.6421    3.0508 H       1  UNL1        0.1405
     40 H          -5.4594   -1.2513    4.1672 H       1  UNL1        0.1405
     41 H          -5.9584    0.9609   -0.6537 H       1  UNL1        0.0629
     42 H          -4.4806    2.9221   -2.9743 H       1  UNL1        0.0279
     43 H          -5.8830    1.8565   -2.8051 H       1  UNL1        0.0279
     44 H          -4.5499    1.3636   -3.8485 H       1  UNL1        0.0279
     45 H          -2.4130    1.9903   -3.3341 H       1  UNL1        0.2922
     46 H          -0.2981    1.3041    1.2052 H       1  UNL1        0.0643
@<TRIPOS>BOND
     1     1     2    1
     2     2     3   ar
     3     3     4   ar
     4     4     5   ar
     5     5     6   ar
     6     6     7   ar
     7     5     8    1
     8     8     9   ar
     9     9    10   ar
    10    10    11   ar
    11    11    12    1
    12    12    13   ar
    13    13    14   ar
    14    14    15    1
    15    15    16   am
    16    16    17    1
    17    15    18    2
    18    14    19   ar
    19    19    20   ar
    20    20    21    1
    21    20    22   ar
    22    22    23    1
    23    11    24   ar
    24    24    25   ar
    25    25    26    1
    26    26    27    2
    27    26    28    2
    28     7     2   ar
    29    26     6    1
    30    25     8   ar
    31    22    12   ar
    32     1    29    1
    33     1    30    1
    34     1    31    1
    35     3    32    1
    36     4    33    1
    37     7    34    1
    38     9    35    1
    39    10    36    1
    40    13    37    1
    41    16    38    1
    42    17    39    1
    43    17    40    1
    44    19    41    1
    45    21    42    1
    46    21    43    1
    47    21    44    1
    48    23    45    1
    49    24    46    1
