@<TRIPOS>MOLECULE
*****
 49 52 0 0 0
SMALL
GASTEIGER

@<TRIPOS>ATOM
      1 C          -7.9289   -0.4823   -0.9518 C.3     1  UNL1       -0.0397
      2 C          -6.4937   -0.2163   -0.6004 C.ar    1  UNL1       -0.0486
      3 C          -6.1598    0.8681    0.2411 C.ar    1  UNL1       -0.0582
      4 C          -4.8260    1.1644    0.5663 C.ar    1  UNL1       -0.0519
      5 C          -3.8119    0.3780    0.0402 C.ar    1  UNL1        0.0092
      6 C          -4.1753   -0.6857   -0.8050 C.ar    1  UNL1        0.1016
      7 C          -5.4773   -1.0047   -1.1468 C.ar    1  UNL1       -0.0329
      8 C          -2.3648    0.4930    0.2345 C.ar    1  UNL1        0.0092
      9 C          -1.6602    1.4042    1.0043 C.ar    1  UNL1       -0.0516
     10 C          -0.2584    1.3168    1.0520 C.ar    1  UNL1       -0.0532
     11 C           0.4640    0.3264    0.3400 C.ar    1  UNL1       -0.0125
     12 C           1.9366    0.2626    0.4222 C.ar    1  UNL1        0.0249
     13 C           2.7004    0.3282   -0.7564 C.ar    1  UNL1       -0.0354
     14 C           4.1013    0.3108   -0.7212 C.ar    1  UNL1        0.0706
     15 C           4.8687    0.3875   -2.0036 C.2     1  UNL1        0.3476
     16 N           6.1983    0.7644   -1.9799 N.4     1  UNL1       -0.1291
     17 O           6.7497    0.9645   -3.2500 O.3     1  UNL1       -0.2093
     18 N           4.2628    0.0924   -3.1134 N.2     1  UNL1       -0.0954
     19 C           4.7643    0.2296    0.5082 C.ar    1  UNL1       -0.0402
     20 C           4.0374    0.1727    1.7050 C.ar    1  UNL1       -0.0074
     21 C           4.7681    0.0833    3.0149 C.3     1  UNL1       -0.0362
     22 C           2.6309    0.1508    1.6470 C.ar    1  UNL1        0.1307
     23 O           1.9391    0.0738    2.8351 O.3     1  UNL1       -0.4942
     24 C           1.5737   -1.2809    3.1101 C.3     1  UNL1        0.0788
     25 C          -0.2510   -0.5888   -0.4448 C.ar    1  UNL1       -0.0280
     26 C          -1.6306   -0.4775   -0.4690 C.ar    1  UNL1        0.1019
     27 S          -2.7305   -1.5268   -1.3546 S.O2    1  UNL1        0.0262
     28 O          -2.7025   -2.8393   -0.7460 O.2     1  UNL1       -0.1643
     29 O          -2.5663   -1.2832   -2.7708 O.2     1  UNL1       -0.1643
     30 H          -8.5894   -0.2132   -0.1209 H       1  UNL1        0.0278
     31 H          -8.0890   -1.5454   -1.1616 H       1  UNL1        0.0278
     32 H          -8.2121    0.0991   -1.8348 H       1  UNL1        0.0278
     33 H          -6.9508    1.4952    0.6512 H       1  UNL1        0.0620
     34 H          -4.6099    2.0049    1.2195 H       1  UNL1        0.0624
     35 H          -5.6897   -1.8343   -1.8138 H       1  UNL1        0.0639
     36 H          -2.1653    2.1784    1.5731 H       1  UNL1        0.0624
     37 H           0.2864    2.0371    1.6628 H       1  UNL1        0.0624
     38 H           2.1998    0.4137   -1.7206 H       1  UNL1        0.0633
     39 H           6.4149    1.5190   -1.3285 H       1  UNL1        0.3483
     40 H           7.1200    0.0849   -3.4639 H       1  UNL1        0.2712
     41 H           4.9435    0.2559   -3.8648 H       1  UNL1        0.3635
     42 H           5.8499    0.1931    0.5458 H       1  UNL1        0.0630
     43 H           4.7988   -0.9551    3.3584 H       1  UNL1        0.0279
     44 H           5.7976    0.4452    2.9177 H       1  UNL1        0.0279
     45 H           4.2840    0.7026    3.7773 H       1  UNL1        0.0279
     46 H           0.8474   -1.6574    2.3819 H       1  UNL1        0.0660
     47 H           1.1035   -1.3037    4.0989 H       1  UNL1        0.0660
     48 H           2.4529   -1.9358    3.1372 H       1  UNL1        0.0660
     49 H           0.2493   -1.3703   -1.0098 H       1  UNL1        0.0643
@<TRIPOS>BOND
     1     1     2    1
     2     2     3   ar
     3     3     4   ar
     4     4     5   ar
     5     5     6   ar
     6     6     7   ar
     7     5     8    1
     8     8     9   ar
     9     9    10   ar
    10    10    11   ar
    11    11    12    1
    12    12    13   ar
    13    13    14   ar
    14    14    15    1
    15    15    16    1
    16    16    17    1
    17    15    18    2
    18    14    19   ar
    19    19    20   ar
    20    20    21    1
    21    20    22   ar
    22    22    23    1
    23    23    24    1
    24    11    25   ar
    25    25    26   ar
    26    26    27    1
    27    27    28    2
    28    27    29    2
    29     7     2   ar
    30    27     6    1
    31    26     8   ar
    32    22    12   ar
    33     1    30    1
    34     1    31    1
    35     1    32    1
    36     3    33    1
    37     4    34    1
    38     7    35    1
    39     9    36    1
    40    10    37    1
    41    13    38    1
    42    16    39    1
    43    17    40    1
    44    18    41    1
    45    19    42    1
    46    21    43    1
    47    21    44    1
    48    21    45    1
    49    24    46    1
    50    24    47    1
    51    24    48    1
    52    25    49    1
