@<TRIPOS>MOLECULE
*****
 42 45 0 0 0
SMALL
GASTEIGER

@<TRIPOS>ATOM
      1 C          -7.6646    0.3274   -0.1601 C.3     1  UNL1       -0.0397
      2 C          -6.1969    0.0156   -0.2152 C.ar    1  UNL1       -0.0486
      3 C          -5.7541   -1.2110   -0.7580 C.ar    1  UNL1       -0.0582
      4 C          -4.3884   -1.5239   -0.8542 C.ar    1  UNL1       -0.0519
      5 C          -3.4517   -0.6007   -0.4140 C.ar    1  UNL1        0.0092
      6 C          -3.9232    0.6169    0.1091 C.ar    1  UNL1        0.1016
      7 C          -5.2596    0.9577    0.2179 C.ar    1  UNL1       -0.0329
      8 C          -1.9906   -0.7017   -0.4158 C.ar    1  UNL1        0.0092
      9 C          -1.1895   -1.7444   -0.8509 C.ar    1  UNL1       -0.0515
     10 C           0.2080   -1.6180   -0.7548 C.ar    1  UNL1       -0.0504
     11 C           0.8277   -0.4587   -0.2272 C.ar    1  UNL1        0.0191
     12 C           2.2833   -0.3567   -0.1401 C.ar    1  UNL1        0.1360
     13 C           3.1605    0.6095    0.3102 C.ar    1  UNL1       -0.0016
     14 C           4.4830    0.1037    0.1262 C.ar    1  UNL1        0.1001
     15 C           5.7547    0.7298    0.4384 C.2     1  UNL1        0.3423
     16 O           5.5945    1.9728    0.9804 O.3     1  UNL1       -0.4644
     17 C           6.8205    2.6282    1.3043 C.3     1  UNL1        0.0820
     18 O           6.8409    0.2001    0.2370 O.2     1  UNL1       -0.2448
     19 C           4.3181   -1.1518   -0.4308 C.ar    1  UNL1        0.1166
     20 O           2.9953   -1.4308   -0.5919 O.2     1  UNL1       -0.4591
     21 C           5.2628   -2.2036   -0.8660 C.3     1  UNL1       -0.0055
     22 C           0.0178    0.5944    0.2121 C.ar    1  UNL1       -0.0252
     23 C          -1.3542    0.4382    0.1037 C.ar    1  UNL1        0.1020
     24 S          -2.5619    1.6222    0.5892 S.O2    1  UNL1        0.0262
     25 O          -2.5455    1.7268    2.0319 O.2     1  UNL1       -0.1643
     26 O          -2.4791    2.7541   -0.3078 O.2     1  UNL1       -0.1643
     27 H          -7.9853    0.7832   -1.1018 H       1  UNL1        0.0278
     28 H          -7.8875    1.0170    0.6608 H       1  UNL1        0.0278
     29 H          -8.2494   -0.5823    0.0121 H       1  UNL1        0.0278
     30 H          -6.4843   -1.9378   -1.1126 H       1  UNL1        0.0620
     31 H          -4.0881   -2.4796   -1.2736 H       1  UNL1        0.0624
     32 H          -5.5577    1.9190    0.6248 H       1  UNL1        0.0639
     33 H          -1.6150   -2.6545   -1.2631 H       1  UNL1        0.0624
     34 H           0.8236   -2.4481   -1.1017 H       1  UNL1        0.0625
     35 H           2.8940    1.5716    0.7257 H       1  UNL1        0.0664
     36 H           7.3762    2.0550    2.0530 H       1  UNL1        0.0661
     37 H           6.5795    3.6072    1.7278 H       1  UNL1        0.0661
     38 H           7.4241    2.7802    0.4040 H       1  UNL1        0.0661
     39 H           5.9243   -1.8234   -1.6504 H       1  UNL1        0.0308
     40 H           5.8770   -2.5386   -0.0245 H       1  UNL1        0.0308
     41 H           4.7325   -3.0744   -1.2644 H       1  UNL1        0.0308
     42 H           0.4286    1.5092    0.6262 H       1  UNL1        0.0644
@<TRIPOS>BOND
     1     1     2    1
     2     2     3   ar
     3     3     4   ar
     4     4     5   ar
     5     5     6   ar
     6     6     7   ar
     7     5     8    1
     8     8     9   ar
     9     9    10   ar
    10    10    11   ar
    11    11    12    1
    12    12    13   ar
    13    13    14   ar
    14    14    15    1
    15    15    16    1
    16    16    17    1
    17    15    18    2
    18    14    19   ar
    19    19    20   ar
    20    19    21    1
    21    11    22   ar
    22    22    23   ar
    23    23    24    1
    24    24    25    2
    25    24    26    2
    26     7     2   ar
    27    24     6    1
    28    23     8   ar
    29    20    12   ar
    30     1    27    1
    31     1    28    1
    32     1    29    1
    33     3    30    1
    34     4    31    1
    35     7    32    1
    36     9    33    1
    37    10    34    1
    38    13    35    1
    39    17    36    1
    40    17    37    1
    41    17    38    1
    42    21    39    1
    43    21    40    1
    44    21    41    1
    45    22    42    1
