@<TRIPOS>MOLECULE
*****
 41 44 0 0 0
SMALL
GASTEIGER

@<TRIPOS>ATOM
      1 C           7.0530    1.1401    1.5113 C.3     1  UNL1       -0.0397
      2 C           5.6544    0.7066    1.1788 C.ar    1  UNL1       -0.0486
      3 C           5.2969   -0.6571    1.2650 C.ar    1  UNL1       -0.0582
      4 C           3.9909   -1.0952    0.9909 C.ar    1  UNL1       -0.0519
      5 C           3.0266   -0.1634    0.6367 C.ar    1  UNL1        0.0092
      6 C           3.4101    1.1884    0.5726 C.ar    1  UNL1        0.1016
      7 C           4.6857    1.6543    0.8362 C.ar    1  UNL1       -0.0329
      8 C           1.6149   -0.3797    0.3114 C.ar    1  UNL1        0.0092
      9 C           0.9015   -1.5670    0.2745 C.ar    1  UNL1       -0.0516
     10 C          -0.4618   -1.5347   -0.0676 C.ar    1  UNL1       -0.0533
     11 C          -1.1344   -0.3264   -0.3789 C.ar    1  UNL1       -0.0160
     12 C          -2.5625   -0.3334   -0.7329 C.ar    1  UNL1       -0.0161
     13 C          -3.5198   -0.8819    0.1382 C.ar    1  UNL1       -0.0476
     14 C          -4.8903   -0.9000   -0.1781 C.ar    1  UNL1       -0.0072
     15 C          -5.8576   -1.4987    0.8034 C.3     1  UNL1       -0.0362
     16 C          -5.3016   -0.3519   -1.4012 C.ar    1  UNL1        0.1371
     17 C          -4.3674    0.1995   -2.2872 C.ar    1  UNL1        0.0939
     18 C          -4.7719    0.7593   -3.5453 C.1     1  UNL1        0.1028
     19 N          -5.0509    1.2217   -4.5736 N.1     1  UNL1       -0.1907
     20 C          -3.0073    0.2072   -1.9480 C.ar    1  UNL1       -0.0331
     21 O          -6.6199   -0.3371   -1.7697 O.3     1  UNL1       -0.5052
     22 C          -0.4109    0.8728   -0.3426 C.ar    1  UNL1       -0.0281
     23 C           0.9289    0.8065    0.0002 C.ar    1  UNL1        0.1019
     24 S           2.0277    2.1761    0.1160 S.O2    1  UNL1        0.0262
     25 O           2.2488    2.6989   -1.2144 O.2     1  UNL1       -0.1643
     26 O           1.6370    2.9813    1.2526 O.2     1  UNL1       -0.1643
     27 H           7.1410    1.3253    2.5862 H       1  UNL1        0.0278
     28 H           7.7776    0.3717    1.2222 H       1  UNL1        0.0278
     29 H           7.3175    2.0555    0.9718 H       1  UNL1        0.0278
     30 H           6.0478   -1.3935    1.5495 H       1  UNL1        0.0620
     31 H           3.7573   -2.1532    1.0633 H       1  UNL1        0.0624
     32 H           4.9151    2.7137    0.7757 H       1  UNL1        0.0639
     33 H           1.3731   -2.5188    0.5006 H       1  UNL1        0.0624
     34 H          -1.0078   -2.4776   -0.1034 H       1  UNL1        0.0624
     35 H          -3.1889   -1.2938    1.0920 H       1  UNL1        0.0627
     36 H          -6.5718   -0.7407    1.1408 H       1  UNL1        0.0279
     37 H          -6.3980   -2.3318    0.3426 H       1  UNL1        0.0279
     38 H          -5.3464   -1.8888    1.6899 H       1  UNL1        0.0279
     39 H          -2.2859    0.6310   -2.6468 H       1  UNL1        0.0638
     40 H          -7.1755   -0.7147   -1.0701 H       1  UNL1        0.2922
     41 H          -0.8753    1.8298   -0.5627 H       1  UNL1        0.0643
@<TRIPOS>BOND
     1     1     2    1
     2     2     3   ar
     3     3     4   ar
     4     4     5   ar
     5     5     6   ar
     6     6     7   ar
     7     5     8    1
     8     8     9   ar
     9     9    10   ar
    10    10    11   ar
    11    11    12    1
    12    12    13   ar
    13    13    14   ar
    14    14    15    1
    15    14    16   ar
    16    16    17   ar
    17    17    18    1
    18    18    19    3
    19    17    20   ar
    20    16    21    1
    21    11    22   ar
    22    22    23   ar
    23    23    24    1
    24    24    25    2
    25    24    26    2
    26     7     2   ar
    27    24     6    1
    28    23     8   ar
    29    20    12   ar
    30     1    27    1
    31     1    28    1
    32     1    29    1
    33     3    30    1
    34     4    31    1
    35     7    32    1
    36     9    33    1
    37    10    34    1
    38    13    35    1
    39    15    36    1
    40    15    37    1
    41    15    38    1
    42    20    39    1
    43    21    40    1
    44    22    41    1
