@<TRIPOS>MOLECULE
*****
 44 50 0 0 0
SMALL
GASTEIGER

@<TRIPOS>ATOM
      1 SI          4.2175    1.0071    4.4996 Si      1  UNL1        0.0000
      2 C           5.7139    0.9614    3.3759 C.2     1  UNL1        0.0000
      3 C           5.3500    0.6776    2.1118 C.ar    1  UNL1        0.0000
      4 C           6.2578    0.5587    0.9897 C.ar    1  UNL1        0.0000
      5 C           5.7532    0.2620   -0.2219 C.ar    1  UNL1        0.0000
      6 C           4.3214    0.0602   -0.4391 C.ar    1  UNL1        0.0000
      7 C           3.4016    0.1610    0.5519 C.ar    1  UNL1        0.0000
      8 C           2.0331   -0.0609    0.1998 C.ar    1  UNL1        0.0000
      9 C           1.3866   -1.2596   -0.0422 C.ar    1  UNL1        0.0000
     10 C           0.0388   -1.0284   -0.3556 C.ar    1  UNL1        0.0000
     11 C          -0.9292   -2.0167   -0.6577 C.ar    1  UNL1        0.0000
     12 C          -0.7816   -3.3662   -0.7117 C.ar    1  UNL1        0.0000
     13 O          -1.9978   -3.8911   -1.0434 O.2     1  UNL1        0.0000
     14 C          -2.8727   -2.8416   -1.1864 C.ar    1  UNL1        0.0000
     15 C          -2.2511   -1.6315   -0.9541 C.ar    1  UNL1        0.0000
     16 C          -2.8058   -0.3125   -1.0007 C.ar    1  UNL1        0.0000
     17 C          -1.7756    0.6328   -0.6858 C.ar    1  UNL1        0.0000
     18 C          -2.1331    1.9794   -0.6819 C.ar    1  UNL1        0.0000
     19 N          -3.3692    2.4507   -0.9510 N.ar    1  UNL1        0.0000
     20 C          -4.3384    1.5782   -1.2465 C.ar    1  UNL1        0.0000
     21 C          -5.5899    2.1151   -1.5152 C.ar    1  UNL1        0.0000
     22 C          -6.6851    1.3174   -1.8364 C.ar    1  UNL1        0.0000
     23 C          -6.5263   -0.0552   -1.8909 C.ar    1  UNL1        0.0000
     24 C          -5.2748   -0.6157   -1.6237 C.ar    1  UNL1        0.0000
     25 C          -4.1440    0.1765   -1.2941 C.ar    1  UNL1        0.0000
     26 C          -0.4060    0.2806   -0.3756 C.ar    1  UNL1        0.0000
     27 S           0.9594    1.2788    0.0253 S.2     1  UNL1        0.0000
     28 C           3.8955    0.4745    1.9000 C.ar    1  UNL1        0.0000
     29 C           3.1511    0.5976    3.0184 C.2     1  UNL1        0.0000
     30 H           3.9540    2.3651    5.0331 H       1  UNL1        0.0000
     31 H           4.2351   -0.0844    5.5032 H       1  UNL1        0.0000
     32 H           6.7087    1.1434    3.7492 H       1  UNL1        0.0000
     33 H           7.3208    0.7089    1.1399 H       1  UNL1        0.0000
     34 H           6.4070    0.1674   -1.0836 H       1  UNL1        0.0000
     35 H           4.0256   -0.1688   -1.4602 H       1  UNL1        0.0000
     36 H           1.8808   -2.2214    0.0171 H       1  UNL1        0.0000
     37 H           0.0200   -4.0749   -0.5631 H       1  UNL1        0.0000
     38 H          -3.8666   -3.1635   -1.4499 H       1  UNL1        0.0000
     39 H          -1.4194    2.7674   -0.4550 H       1  UNL1        0.0000
     40 H          -5.7158    3.1952   -1.4727 H       1  UNL1        0.0000
     41 H          -7.6504    1.7718   -2.0411 H       1  UNL1        0.0000
     42 H          -7.3695   -0.6946   -2.1401 H       1  UNL1        0.0000
     43 H          -5.2119   -1.6926   -1.6818 H       1  UNL1        0.0000
     44 H           2.0822    0.4906    3.1121 H       1  UNL1        0.0000
@<TRIPOS>BOND
     1     1     2    1
     2     2     3    2
     3     3     4   ar
     4     4     5   ar
     5     5     6   ar
     6     6     7   ar
     7     7     8    1
     8     8     9   ar
     9     9    10   ar
    10    10    11   ar
    11    11    12   ar
    12    12    13   ar
    13    13    14   ar
    14    14    15   ar
    15    15    16   ar
    16    16    17   ar
    17    17    18   ar
    18    18    19   ar
    19    19    20   ar
    20    20    21   ar
    21    21    22   ar
    22    22    23   ar
    23    23    24   ar
    24    24    25   ar
    25    17    26   ar
    26    26    27   ar
    27     7    28   ar
    28    28    29    2
    29    29     1    1
    30    28     3   ar
    31    27     8   ar
    32    26    10   ar
    33    15    11   ar
    34    25    16   ar
    35    25    20   ar
    36     1    30    1
    37     1    31    1
    38     2    32    1
    39     4    33    1
    40     5    34    1
    41     6    35    1
    42     9    36    1
    43    12    37    1
    44    14    38    1
    45    18    39    1
    46    21    40    1
    47    22    41    1
    48    23    42    1
    49    24    43    1
    50    29    44    1
