@<TRIPOS>MOLECULE
*****
 49 52 0 0 0
SMALL
GASTEIGER

@<TRIPOS>ATOM
      1 C           8.8906    0.1079   -0.3067 C.3     1  UNL1       -0.0397
      2 C           7.4147   -0.1636   -0.2552 C.ar    1  UNL1       -0.0486
      3 C           6.9363   -1.4894   -0.3494 C.ar    1  UNL1       -0.0582
      4 C           5.5622   -1.7797   -0.3355 C.ar    1  UNL1       -0.0519
      5 C           4.6529   -0.7369   -0.2373 C.ar    1  UNL1        0.0092
      6 C           5.1596    0.5730   -0.1587 C.ar    1  UNL1        0.1016
      7 C           6.5053    0.8945   -0.1700 C.ar    1  UNL1       -0.0329
      8 C           3.1895   -0.7931   -0.2069 C.ar    1  UNL1        0.0092
      9 C           2.3588   -1.9010   -0.2635 C.ar    1  UNL1       -0.0516
     10 C           0.9662   -1.7136   -0.2186 C.ar    1  UNL1       -0.0533
     11 C           0.3801   -0.4276   -0.1143 C.ar    1  UNL1       -0.0160
     12 C          -1.0817   -0.2707   -0.0689 C.ar    1  UNL1       -0.0174
     13 C          -1.7050    0.3936    0.9989 C.ar    1  UNL1       -0.0476
     14 C          -3.1009    0.5523    1.0513 C.ar    1  UNL1       -0.0082
     15 C          -3.7242    1.2645    2.2206 C.3     1  UNL1       -0.0362
     16 C          -3.8956    0.0411    0.0116 C.ar    1  UNL1        0.1241
     17 C          -3.2855   -0.6226   -1.0548 C.ar    1  UNL1       -0.0191
     18 C          -1.8945   -0.7748   -1.0924 C.ar    1  UNL1       -0.0506
     19 O          -5.2438    0.2441    0.1417 O.3     1  UNL1       -0.4825
     20 C          -6.0836   -0.2205   -0.9109 C.3     1  UNL1        0.1664
     21 C          -7.5459    0.1247   -0.6380 C.2     1  UNL1        0.2639
     22 N          -7.7396    0.9764    0.4419 N.am    1  UNL1       -0.2508
     23 N          -9.0487    1.2688    0.8795 N.3     1  UNL1       -0.2543
     24 O          -8.4686   -0.3024   -1.3323 O.2     1  UNL1       -0.2708
     25 C           1.2216    0.6911   -0.0553 C.ar    1  UNL1       -0.0281
     26 C           2.5875    0.4729   -0.1051 C.ar    1  UNL1        0.1019
     27 S           3.8286    1.7187   -0.0521 S.O2    1  UNL1        0.0262
     28 O           3.7712    2.4775   -1.2824 O.2     1  UNL1       -0.1643
     29 O           3.8297    2.3100    1.2681 O.2     1  UNL1       -0.1643
     30 H           9.4495   -0.6893    0.1953 H       1  UNL1        0.0278
     31 H           9.2218    0.1745   -1.3478 H       1  UNL1        0.0278
     32 H           9.1351    1.0464    0.2025 H       1  UNL1        0.0278
     33 H           7.6450   -2.3125   -0.4355 H       1  UNL1        0.0620
     34 H           5.2344   -2.8129   -0.4056 H       1  UNL1        0.0624
     35 H           6.8309    1.9286   -0.1140 H       1  UNL1        0.0639
     36 H           2.7599   -2.9076   -0.3384 H       1  UNL1        0.0624
     37 H           0.3237   -2.5933   -0.2529 H       1  UNL1        0.0624
     38 H          -1.0944    0.7859    1.8113 H       1  UNL1        0.0627
     39 H          -2.9688    1.5959    2.9405 H       1  UNL1        0.0279
     40 H          -4.2684    2.1507    1.8783 H       1  UNL1        0.0279
     41 H          -4.4128    0.5957    2.7466 H       1  UNL1        0.0279
     42 H          -3.8567   -1.0369   -1.8793 H       1  UNL1        0.0654
     43 H          -1.4463   -1.2848   -1.9435 H       1  UNL1        0.0625
     44 H          -6.0197   -1.3121   -0.9861 H       1  UNL1        0.0795
     45 H          -5.8135    0.2592   -1.8590 H       1  UNL1        0.0795
     46 H          -6.9489    1.1405    1.0679 H       1  UNL1        0.1688
     47 H          -9.6520    0.4991    0.5616 H       1  UNL1        0.1405
     48 H          -9.3820    2.0707    0.3368 H       1  UNL1        0.1405
     49 H           0.8263    1.7007    0.0157 H       1  UNL1        0.0643
@<TRIPOS>BOND
     1     1     2    1
     2     2     3   ar
     3     3     4   ar
     4     4     5   ar
     5     5     6   ar
     6     6     7   ar
     7     5     8    1
     8     8     9   ar
     9     9    10   ar
    10    10    11   ar
    11    11    12    1
    12    12    13   ar
    13    13    14   ar
    14    14    15    1
    15    14    16   ar
    16    16    17   ar
    17    17    18   ar
    18    16    19    1
    19    19    20    1
    20    20    21    1
    21    21    22   am
    22    22    23    1
    23    21    24    2
    24    11    25   ar
    25    25    26   ar
    26    26    27    1
    27    27    28    2
    28    27    29    2
    29     7     2   ar
    30    27     6    1
    31    26     8   ar
    32    18    12   ar
    33     1    30    1
    34     1    31    1
    35     1    32    1
    36     3    33    1
    37     4    34    1
    38     7    35    1
    39     9    36    1
    40    10    37    1
    41    13    38    1
    42    15    39    1
    43    15    40    1
    44    15    41    1
    45    17    42    1
    46    18    43    1
    47    20    44    1
    48    20    45    1
    49    22    46    1
    50    23    47    1
    51    23    48    1
    52    25    49    1
