@<TRIPOS>MOLECULE
*****
 49 53 0 0 0
SMALL
GASTEIGER

@<TRIPOS>ATOM
      1 C           8.6571   -0.1117   -0.1648 C.3     1  UNL1       -0.0397
      2 C           7.1712   -0.1947    0.0346 C.ar    1  UNL1       -0.0486
      3 C           6.6467   -0.7263    1.2335 C.ar    1  UNL1       -0.0582
      4 C           5.2634   -0.7904    1.4680 C.ar    1  UNL1       -0.0519
      5 C           4.3919   -0.3105    0.5016 C.ar    1  UNL1        0.0092
      6 C           4.9450    0.2249   -0.6757 C.ar    1  UNL1        0.1016
      7 C           6.3008    0.3040   -0.9387 C.ar    1  UNL1       -0.0329
      8 C           2.9279   -0.2689    0.5232 C.ar    1  UNL1        0.0092
      9 C           2.0584   -0.7078    1.5087 C.ar    1  UNL1       -0.0516
     10 C           0.6735   -0.5671    1.3105 C.ar    1  UNL1       -0.0533
     11 C           0.1330    0.0116    0.1348 C.ar    1  UNL1       -0.0160
     12 C          -1.3230    0.1399   -0.0370 C.ar    1  UNL1       -0.0168
     13 C          -2.1673   -0.9941    0.0621 C.ar    1  UNL1       -0.0493
     14 C          -3.5759   -0.9333   -0.0926 C.ar    1  UNL1       -0.0278
     15 C          -4.3445   -2.2159    0.0023 C.3     1  UNL1       -0.0379
     16 C          -4.1329    0.3146   -0.3557 C.ar    1  UNL1        0.0505
     17 N          -5.4733    0.7222   -0.5631 N.am    1  UNL1       -0.2641
     18 C          -6.6668   -0.0800   -0.4538 C.3     1  UNL1        0.0174
     19 C          -7.2127   -0.1054    0.9657 C.3     1  UNL1       -0.0489
     20 C          -3.2837    1.4251   -0.4554 C.ar    1  UNL1        0.0491
     21 C          -4.1005    2.6039   -0.7281 C.2     1  UNL1        0.2495
     22 C          -5.5514    2.0967   -0.7725 C.2     1  UNL1        0.2913
     23 O          -6.5281    2.7957   -0.9423 O.2     1  UNL1       -0.2661
     24 O          -3.7147    3.7399   -0.8809 O.2     1  UNL1       -0.2817
     25 C          -1.9080    1.3788   -0.3063 C.ar    1  UNL1       -0.0412
     26 C           1.0143    0.4576   -0.8590 C.ar    1  UNL1       -0.0281
     27 C           2.3716    0.3019   -0.6340 C.ar    1  UNL1        0.1019
     28 S           3.6564    0.7749   -1.7397 S.O2    1  UNL1        0.0262
     29 O           3.6944    2.2191   -1.8074 O.2     1  UNL1       -0.1643
     30 O           3.6068   -0.0935   -2.8956 O.2     1  UNL1       -0.1643
     31 H           8.9117   -0.1499   -1.2292 H       1  UNL1        0.0278
     32 H           9.1624   -0.9533    0.3204 H       1  UNL1        0.0278
     33 H           9.0390    0.8231    0.2568 H       1  UNL1        0.0278
     34 H           7.3260   -1.0976    2.0002 H       1  UNL1        0.0620
     35 H           4.8998   -1.2096    2.4013 H       1  UNL1        0.0624
     36 H           6.6637    0.7373   -1.8657 H       1  UNL1        0.0639
     37 H           2.4239   -1.1543    2.4288 H       1  UNL1        0.0624
     38 H           0.0027   -0.9069    2.0996 H       1  UNL1        0.0624
     39 H          -1.7031   -1.9643    0.2508 H       1  UNL1        0.0627
     40 H          -3.6973   -3.0527    0.2886 H       1  UNL1        0.0278
     41 H          -5.1217   -2.1519    0.7670 H       1  UNL1        0.0278
     42 H          -4.7825   -2.4695   -0.9676 H       1  UNL1        0.0278
     43 H          -7.4327    0.3605   -1.1043 H       1  UNL1        0.0466
     44 H          -6.4927   -1.0857   -0.8375 H       1  UNL1        0.0466
     45 H          -7.4830    0.9025    1.2984 H       1  UNL1        0.0245
     46 H          -8.1087   -0.7315    1.0170 H       1  UNL1        0.0245
     47 H          -6.4769   -0.4979    1.6738 H       1  UNL1        0.0245
     48 H          -1.3187    2.2883   -0.3882 H       1  UNL1        0.0631
     49 H           0.6587    0.9024   -1.7842 H       1  UNL1        0.0643
@<TRIPOS>BOND
     1     1     2    1
     2     2     3   ar
     3     3     4   ar
     4     4     5   ar
     5     5     6   ar
     6     6     7   ar
     7     5     8    1
     8     8     9   ar
     9     9    10   ar
    10    10    11   ar
    11    11    12    1
    12    12    13   ar
    13    13    14   ar
    14    14    15    1
    15    14    16   ar
    16    16    17    1
    17    17    18    1
    18    18    19    1
    19    16    20   ar
    20    20    21    1
    21    21    22    1
    22    22    23    2
    23    21    24    2
    24    20    25   ar
    25    11    26   ar
    26    26    27   ar
    27    27    28    1
    28    28    29    2
    29    28    30    2
    30     7     2   ar
    31    28     6    1
    32    27     8   ar
    33    25    12   ar
    34    22    17   am
    35     1    31    1
    36     1    32    1
    37     1    33    1
    38     3    34    1
    39     4    35    1
    40     7    36    1
    41     9    37    1
    42    10    38    1
    43    13    39    1
    44    15    40    1
    45    15    41    1
    46    15    42    1
    47    18    43    1
    48    18    44    1
    49    19    45    1
    50    19    46    1
    51    19    47    1
    52    25    48    1
    53    26    49    1
