@<TRIPOS>MOLECULE
*****
 42 45 0 0 0
SMALL
GASTEIGER

@<TRIPOS>ATOM
      1 C           7.3538   -0.2603    0.6231 C.3     1  UNL1       -0.0397
      2 C           5.8890   -0.2737    0.2935 C.ar    1  UNL1       -0.0486
      3 C           5.4659   -0.4501   -1.0425 C.ar    1  UNL1       -0.0582
      4 C           4.1057   -0.4372   -1.3923 C.ar    1  UNL1       -0.0519
      5 C           3.1557   -0.2362   -0.4020 C.ar    1  UNL1        0.0092
      6 C           3.6089   -0.0503    0.9164 C.ar    1  UNL1        0.1016
      7 C           4.9393   -0.0566    1.2958 C.ar    1  UNL1       -0.0329
      8 C           1.6972   -0.1807   -0.5248 C.ar    1  UNL1        0.0092
      9 C           0.9128   -0.3226   -1.6582 C.ar    1  UNL1       -0.0516
     10 C          -0.4849   -0.2332   -1.5368 C.ar    1  UNL1       -0.0533
     11 C          -1.1230   -0.0027   -0.2922 C.ar    1  UNL1       -0.0160
     12 C          -2.5903    0.0818   -0.2048 C.ar    1  UNL1       -0.0173
     13 C          -3.3091   -0.7334    0.6855 C.ar    1  UNL1       -0.0511
     14 C          -4.7062   -0.6606    0.7766 C.ar    1  UNL1       -0.0496
     15 C          -5.4464   -1.5142    1.7636 C.3     1  UNL1       -0.0397
     16 C          -5.3948    0.2591   -0.0218 C.ar    1  UNL1       -0.0559
     17 C          -4.7078    1.0741   -0.9282 C.ar    1  UNL1       -0.0496
     18 C          -5.4495    2.0796   -1.7586 C.3     1  UNL1       -0.0397
     19 C          -3.3107    0.9848   -1.0044 C.ar    1  UNL1       -0.0511
     20 C          -0.3272    0.1408    0.8522 C.ar    1  UNL1       -0.0281
     21 C           1.0453    0.0483    0.6989 C.ar    1  UNL1        0.1019
     22 S           2.2341    0.1937    1.9873 S.O2    1  UNL1        0.0262
     23 O           2.1145   -0.9571    2.8559 O.2     1  UNL1       -0.1643
     24 O           2.2475    1.5639    2.4512 O.2     1  UNL1       -0.1643
     25 H           7.5263   -0.5930    1.6520 H       1  UNL1        0.0278
     26 H           7.7536    0.7516    0.5069 H       1  UNL1        0.0278
     27 H           7.9069   -0.9390   -0.0347 H       1  UNL1        0.0278
     28 H           6.2070   -0.6011   -1.8267 H       1  UNL1        0.0620
     29 H           3.8203   -0.5810   -2.4301 H       1  UNL1        0.0624
     30 H           5.2232    0.1011    2.3317 H       1  UNL1        0.0639
     31 H           1.3530   -0.5048   -2.6339 H       1  UNL1        0.0624
     32 H          -1.0921   -0.3591   -2.4334 H       1  UNL1        0.0624
     33 H          -2.7737   -1.4432    1.3145 H       1  UNL1        0.0626
     34 H          -6.4589   -1.7338    1.4088 H       1  UNL1        0.0278
     35 H          -4.9386   -2.4736    1.9083 H       1  UNL1        0.0278
     36 H          -5.5130   -0.9996    2.7271 H       1  UNL1        0.0278
     37 H          -6.4769    0.3411    0.0629 H       1  UNL1        0.0623
     38 H          -4.9416    2.2474   -2.7142 H       1  UNL1        0.0278
     39 H          -6.4612    1.7281   -1.9867 H       1  UNL1        0.0278
     40 H          -5.5178    3.0307   -1.2217 H       1  UNL1        0.0278
     41 H          -2.7741    1.6422   -1.6866 H       1  UNL1        0.0626
     42 H          -0.7620    0.3287    1.8296 H       1  UNL1        0.0643
@<TRIPOS>BOND
     1     1     2    1
     2     2     3   ar
     3     3     4   ar
     4     4     5   ar
     5     5     6   ar
     6     6     7   ar
     7     5     8    1
     8     8     9   ar
     9     9    10   ar
    10    10    11   ar
    11    11    12    1
    12    12    13   ar
    13    13    14   ar
    14    14    15    1
    15    14    16   ar
    16    16    17   ar
    17    17    18    1
    18    17    19   ar
    19    11    20   ar
    20    20    21   ar
    21    21    22    1
    22    22    23    2
    23    22    24    2
    24     7     2   ar
    25    22     6    1
    26    21     8   ar
    27    19    12   ar
    28     1    25    1
    29     1    26    1
    30     1    27    1
    31     3    28    1
    32     4    29    1
    33     7    30    1
    34     9    31    1
    35    10    32    1
    36    13    33    1
    37    15    34    1
    38    15    35    1
    39    15    36    1
    40    16    37    1
    41    18    38    1
    42    18    39    1
    43    18    40    1
    44    19    41    1
    45    20    42    1
