@<TRIPOS>MOLECULE
*****
 39 42 0 0 0
SMALL
GASTEIGER

@<TRIPOS>ATOM
      1 C           6.9435    0.3118    0.3706 C.3     1  UNL1       -0.0397
      2 C           5.4593    0.4152    0.1681 C.ar    1  UNL1       -0.0486
      3 C           4.8616    1.6755   -0.0540 C.ar    1  UNL1       -0.0582
      4 C           3.4735    1.8142   -0.2166 C.ar    1  UNL1       -0.0519
      5 C           2.6695    0.6861   -0.1475 C.ar    1  UNL1        0.0092
      6 C           3.2928   -0.5526    0.0879 C.ar    1  UNL1        0.1016
      7 C           4.6554   -0.7251    0.2531 C.ar    1  UNL1       -0.0329
      8 C           1.2146    0.5844   -0.2821 C.ar    1  UNL1        0.0092
      9 C           0.2896    1.5887   -0.5183 C.ar    1  UNL1       -0.0516
     10 C          -1.0726    1.2540   -0.6127 C.ar    1  UNL1       -0.0533
     11 C          -1.5357   -0.0786   -0.4752 C.ar    1  UNL1       -0.0160
     12 C          -2.9707   -0.3901   -0.5832 C.ar    1  UNL1       -0.0176
     13 C          -3.9178    0.2742    0.2163 C.ar    1  UNL1       -0.0511
     14 C          -5.2884   -0.0098    0.1169 C.ar    1  UNL1       -0.0499
     15 C          -6.2733    0.6859    1.0093 C.3     1  UNL1       -0.0397
     16 C          -5.7163   -0.9924   -0.7806 C.ar    1  UNL1       -0.0588
     17 C          -4.7934   -1.6621   -1.5816 C.ar    1  UNL1       -0.0609
     18 C          -3.4333   -1.3620   -1.4843 C.ar    1  UNL1       -0.0540
     19 C          -0.5980   -1.0921   -0.2363 C.ar    1  UNL1       -0.0281
     20 C           0.7350   -0.7297   -0.1479 C.ar    1  UNL1        0.1019
     21 S           2.0795   -1.8259    0.1438 S.O2    1  UNL1        0.0262
     22 O           2.2435   -2.6723   -1.0181 O.2     1  UNL1       -0.1643
     23 O           1.9884   -2.3179    1.5011 O.2     1  UNL1       -0.1643
     24 H           7.3135   -0.6703    0.0579 H       1  UNL1        0.0278
     25 H           7.4709    1.0628   -0.2267 H       1  UNL1        0.0278
     26 H           7.1878    0.4618    1.4266 H       1  UNL1        0.0278
     27 H           5.4863    2.5668   -0.1020 H       1  UNL1        0.0620
     28 H           3.0524    2.7999   -0.3902 H       1  UNL1        0.0624
     29 H           5.0730   -1.7096    0.4402 H       1  UNL1        0.0639
     30 H           0.5939    2.6244   -0.6354 H       1  UNL1        0.0624
     31 H          -1.7891    2.0512   -0.8114 H       1  UNL1        0.0624
     32 H          -3.5821    1.0170    0.9384 H       1  UNL1        0.0626
     33 H          -7.2546    0.7571    0.5285 H       1  UNL1        0.0278
     34 H          -5.9457    1.7072    1.2303 H       1  UNL1        0.0278
     35 H          -6.3793    0.1362    1.9496 H       1  UNL1        0.0278
     36 H          -6.7717   -1.2427   -0.8609 H       1  UNL1        0.0620
     37 H          -5.1321   -2.4206   -2.2826 H       1  UNL1        0.0618
     38 H          -2.7328   -1.8919   -2.1269 H       1  UNL1        0.0624
     39 H          -0.8971   -2.1289   -0.1127 H       1  UNL1        0.0643
@<TRIPOS>BOND
     1     1     2    1
     2     2     3   ar
     3     3     4   ar
     4     4     5   ar
     5     5     6   ar
     6     6     7   ar
     7     5     8    1
     8     8     9   ar
     9     9    10   ar
    10    10    11   ar
    11    11    12    1
    12    12    13   ar
    13    13    14   ar
    14    14    15    1
    15    14    16   ar
    16    16    17   ar
    17    17    18   ar
    18    11    19   ar
    19    19    20   ar
    20    20    21    1
    21    21    22    2
    22    21    23    2
    23     7     2   ar
    24    21     6    1
    25    20     8   ar
    26    18    12   ar
    27     1    24    1
    28     1    25    1
    29     1    26    1
    30     3    27    1
    31     4    28    1
    32     7    29    1
    33     9    30    1
    34    10    31    1
    35    13    32    1
    36    15    33    1
    37    15    34    1
    38    15    35    1
    39    16    36    1
    40    17    37    1
    41    18    38    1
    42    19    39    1
