@<TRIPOS>MOLECULE
*****
 38 41 0 0 0
SMALL
GASTEIGER

@<TRIPOS>ATOM
      1 C           6.7910    0.1022    0.7650 C.3     1  UNL1       -0.0397
      2 C           5.2976   -0.0451    0.7131 C.ar    1  UNL1       -0.0486
      3 C           4.6454   -0.9508    1.5788 C.ar    1  UNL1       -0.0582
      4 C           3.2541   -1.1377    1.5371 C.ar    1  UNL1       -0.0519
      5 C           2.5040   -0.4219    0.6160 C.ar    1  UNL1        0.0092
      6 C           3.1837    0.4621   -0.2412 C.ar    1  UNL1        0.1016
      7 C           4.5514    0.6700   -0.2278 C.ar    1  UNL1       -0.0329
      8 C           1.0576   -0.4514    0.3867 C.ar    1  UNL1        0.0092
      9 C           0.0874   -1.1950    1.0388 C.ar    1  UNL1       -0.0516
     10 C          -1.2558   -1.0608    0.6455 C.ar    1  UNL1       -0.0533
     11 C          -1.6555   -0.1901   -0.3998 C.ar    1  UNL1       -0.0146
     12 C          -3.0703   -0.0785   -0.7822 C.ar    1  UNL1        0.0005
     13 C          -4.0699    0.2047    0.1589 C.ar    1  UNL1       -0.0482
     14 C          -5.4089    0.3157   -0.2320 C.ar    1  UNL1       -0.0318
     15 C          -6.4894    0.5883    0.7652 C.3     1  UNL1       -0.0383
     16 C          -5.7052    0.1091   -1.5732 C.ar    1  UNL1        0.0305
     17 N          -4.7804   -0.1670   -2.5168 N.ar    1  UNL1       -0.2624
     18 C          -3.4943   -0.2505   -2.1004 C.ar    1  UNL1        0.0353
     19 C          -0.6716    0.5604   -1.0579 C.ar    1  UNL1       -0.0281
     20 C           0.6412    0.4065   -0.6452 C.ar    1  UNL1        0.1019
     21 S           2.0343    1.2438   -1.3197 S.O2    1  UNL1        0.0262
     22 O           1.9442    2.6434   -0.9655 O.2     1  UNL1       -0.1643
     23 O           2.2542    0.7570   -2.6641 O.2     1  UNL1       -0.1643
     24 H           7.1596   -0.0293    1.7877 H       1  UNL1        0.0278
     25 H           7.2627   -0.6440    0.1184 H       1  UNL1        0.0278
     26 H           7.0973    1.1005    0.4352 H       1  UNL1        0.0278
     27 H           5.2295   -1.5221    2.2996 H       1  UNL1        0.0620
     28 H           2.7897   -1.8406    2.2224 H       1  UNL1        0.0624
     29 H           5.0160    1.3624   -0.9231 H       1  UNL1        0.0639
     30 H           0.3425   -1.8791    1.8428 H       1  UNL1        0.0624
     31 H          -2.0061   -1.6615    1.1603 H       1  UNL1        0.0624
     32 H          -3.8035    0.3551    1.2033 H       1  UNL1        0.0627
     33 H          -6.8606   -0.3525    1.1829 H       1  UNL1        0.0278
     34 H          -7.3250    1.1227    0.3010 H       1  UNL1        0.0278
     35 H          -6.1172    1.2154    1.5822 H       1  UNL1        0.0278
     36 H          -6.7267    0.1618   -1.9412 H       1  UNL1        0.0832
     37 H          -2.7857   -0.4823   -2.8923 H       1  UNL1        0.0836
     38 H          -0.9172    1.2533   -1.8581 H       1  UNL1        0.0643
@<TRIPOS>BOND
     1     1     2    1
     2     2     3   ar
     3     3     4   ar
     4     4     5   ar
     5     5     6   ar
     6     6     7   ar
     7     5     8    1
     8     8     9   ar
     9     9    10   ar
    10    10    11   ar
    11    11    12    1
    12    12    13   ar
    13    13    14   ar
    14    14    15    1
    15    14    16   ar
    16    16    17   ar
    17    17    18   ar
    18    11    19   ar
    19    19    20   ar
    20    20    21    1
    21    21    22    2
    22    21    23    2
    23     7     2   ar
    24    21     6    1
    25    20     8   ar
    26    18    12   ar
    27     1    24    1
    28     1    25    1
    29     1    26    1
    30     3    27    1
    31     4    28    1
    32     7    29    1
    33     9    30    1
    34    10    31    1
    35    13    32    1
    36    15    33    1
    37    15    34    1
    38    15    35    1
    39    16    36    1
    40    18    37    1
    41    19    38    1
