@<TRIPOS>MOLECULE
*****
 47 51 0 0 0
SMALL
GASTEIGER

@<TRIPOS>ATOM
      1 C           8.1575   -1.8334    0.5723 C.3     1  UNL1       -0.0397
      2 C           6.7390   -1.6336    0.1254 C.ar    1  UNL1       -0.0486
      3 C           6.2196   -2.3473   -0.9771 C.ar    1  UNL1       -0.0582
      4 C           4.8984   -2.1572   -1.4217 C.ar    1  UNL1       -0.0519
      5 C           4.0849   -1.2473   -0.7604 C.ar    1  UNL1        0.0092
      6 C           4.6315   -0.5593    0.3371 C.ar    1  UNL1        0.1016
      7 C           5.9266   -0.7154    0.7974 C.ar    1  UNL1       -0.0329
      8 C           2.6962   -0.8685   -1.0424 C.ar    1  UNL1        0.0092
      9 C           1.8477   -1.3271   -2.0400 C.ar    1  UNL1       -0.0516
     10 C           0.5391   -0.8118   -2.1210 C.ar    1  UNL1       -0.0533
     11 C           0.0653    0.1642   -1.2128 C.ar    1  UNL1       -0.0159
     12 C          -1.2973    0.6947   -1.3024 C.ar    1  UNL1       -0.0143
     13 C          -2.3312    0.1380   -0.5419 C.ar    1  UNL1       -0.0265
     14 C          -3.5913    0.7410   -0.5395 C.ar    1  UNL1        0.0897
     15 C          -4.6815    0.2504    0.3348 C.ar    1  UNL1        0.0894
     16 N          -4.6431   -1.0691    0.6886 N.ar    1  UNL1       -0.2534
     17 C          -5.6150   -1.5200    1.5146 C.ar    1  UNL1        0.0286
     18 C          -6.6250   -0.7259    2.0336 C.ar    1  UNL1       -0.0406
     19 C          -6.6288    0.6286    1.7191 C.ar    1  UNL1       -0.0469
     20 C          -7.6004    1.5648    2.3843 C.3     1  UNL1       -0.0396
     21 C          -5.6553    1.1141    0.8396 C.ar    1  UNL1       -0.0313
     22 N          -3.8545    1.8477   -1.2882 N.ar    1  UNL1       -0.2534
     23 C          -2.8576    2.3436   -2.0492 C.ar    1  UNL1        0.0289
     24 C          -1.5793    1.8174   -2.0846 C.ar    1  UNL1       -0.0358
     25 C           0.9194    0.6295   -0.2048 C.ar    1  UNL1       -0.0281
     26 C           2.1961    0.1012   -0.1544 C.ar    1  UNL1        0.1019
     27 S           3.4293    0.5290    1.0198 S.O2    1  UNL1        0.0262
     28 O           3.0264    0.0201    2.3112 O.2     1  UNL1       -0.1643
     29 O           3.8497    1.8904    0.7791 O.2     1  UNL1       -0.1643
     30 H           8.7279   -0.9067    0.4389 H       1  UNL1        0.0278
     31 H           8.6514   -2.6195   -0.0036 H       1  UNL1        0.0278
     32 H           8.1819   -2.1227    1.6273 H       1  UNL1        0.0278
     33 H           6.8522   -3.0614   -1.5055 H       1  UNL1        0.0620
     34 H           4.5366   -2.7216   -2.2772 H       1  UNL1        0.0624
     35 H           6.2858   -0.1355    1.6436 H       1  UNL1        0.0639
     36 H           2.1719   -2.0763   -2.7567 H       1  UNL1        0.0624
     37 H          -0.1247   -1.1844   -2.9040 H       1  UNL1        0.0624
     38 H          -2.1458   -0.7359    0.0837 H       1  UNL1        0.0645
     39 H          -5.5394   -2.5734    1.7775 H       1  UNL1        0.0830
     40 H          -7.3586   -1.1480    2.7163 H       1  UNL1        0.0635
     41 H          -7.3430    1.6581    3.4517 H       1  UNL1        0.0278
     42 H          -8.6345    1.1991    2.2958 H       1  UNL1        0.0278
     43 H          -7.5619    2.5647    1.9425 H       1  UNL1        0.0278
     44 H          -5.6298    2.1687    0.5712 H       1  UNL1        0.0642
     45 H          -3.1189    3.2130   -2.6413 H       1  UNL1        0.0830
     46 H          -0.8139    2.2840   -2.6940 H       1  UNL1        0.0639
     47 H           0.5966    1.3762    0.5171 H       1  UNL1        0.0643
@<TRIPOS>BOND
     1     1     2    1
     2     2     3   ar
     3     3     4   ar
     4     4     5   ar
     5     5     6   ar
     6     6     7   ar
     7     5     8    1
     8     8     9   ar
     9     9    10   ar
    10    10    11   ar
    11    11    12    1
    12    12    13   ar
    13    13    14   ar
    14    14    15    1
    15    15    16   ar
    16    16    17   ar
    17    17    18   ar
    18    18    19   ar
    19    19    20    1
    20    19    21   ar
    21    14    22   ar
    22    22    23   ar
    23    23    24   ar
    24    11    25   ar
    25    25    26   ar
    26    26    27    1
    27    27    28    2
    28    27    29    2
    29     7     2   ar
    30    27     6    1
    31    26     8   ar
    32    24    12   ar
    33    21    15   ar
    34     1    30    1
    35     1    31    1
    36     1    32    1
    37     3    33    1
    38     4    34    1
    39     7    35    1
    40     9    36    1
    41    10    37    1
    42    13    38    1
    43    17    39    1
    44    18    40    1
    45    20    41    1
    46    20    42    1
    47    20    43    1
    48    21    44    1
    49    23    45    1
    50    24    46    1
    51    25    47    1
