@<TRIPOS>MOLECULE
*****
 43 47 0 0 0
SMALL
GASTEIGER

@<TRIPOS>ATOM
      1 C           7.6404   -0.1310   -0.2458 C.3     1  UNL1       -0.0397
      2 C           6.1571    0.0701   -0.3640 C.ar    1  UNL1       -0.0486
      3 C           5.6343    0.8952   -1.3843 C.ar    1  UNL1       -0.0582
      4 C           4.2516    1.0816   -1.5450 C.ar    1  UNL1       -0.0519
      5 C           3.3784    0.4309   -0.6862 C.ar    1  UNL1        0.0092
      6 C           3.9290   -0.3944    0.3112 C.ar    1  UNL1        0.1016
      7 C           5.2842   -0.6007    0.4972 C.ar    1  UNL1       -0.0329
      8 C           1.9143    0.4687   -0.6618 C.ar    1  UNL1        0.0092
      9 C           1.0464    1.1694   -1.4833 C.ar    1  UNL1       -0.0516
     10 C          -0.3391    1.0550   -1.2707 C.ar    1  UNL1       -0.0533
     11 C          -0.8836    0.2447   -0.2423 C.ar    1  UNL1       -0.0160
     12 C          -2.3420    0.1504   -0.0484 C.ar    1  UNL1       -0.0168
     13 C          -3.1899   -0.1518   -1.1258 C.ar    1  UNL1       -0.0412
     14 C          -4.5466   -0.2251   -0.8780 C.ar    1  UNL1        0.0489
     15 C          -5.6499   -0.5130   -1.7963 C.2     1  UNL1        0.2493
     16 O          -5.5739   -0.7419   -2.9807 O.2     1  UNL1       -0.2817
     17 C          -5.1009   -0.0169    0.3826 C.ar    1  UNL1        0.0477
     18 N          -6.4881   -0.1499    0.3505 N.am    1  UNL1       -0.2780
     19 C          -6.9314   -0.4517   -0.9214 C.2     1  UNL1        0.2887
     20 O          -8.0685   -0.6315   -1.2950 O.2     1  UNL1       -0.2663
     21 C          -4.3043    0.2805    1.4725 C.ar    1  UNL1       -0.0280
     22 C          -4.8721    0.5182    2.8363 C.3     1  UNL1       -0.0379
     23 C          -2.9172    0.3639    1.2362 C.ar    1  UNL1       -0.0493
     24 C          -0.0023   -0.4641    0.5855 C.ar    1  UNL1       -0.0281
     25 C           1.3555   -0.3290    0.3503 C.ar    1  UNL1        0.1019
     26 S           2.6377   -1.1152    1.2635 S.O2    1  UNL1        0.0262
     27 O           2.5916   -2.5346    0.9890 O.2     1  UNL1       -0.1643
     28 O           2.6641   -0.5451    2.5929 O.2     1  UNL1       -0.1643
     29 H           7.9232   -0.3590    0.7873 H       1  UNL1        0.0278
     30 H           8.1805    0.7757   -0.5379 H       1  UNL1        0.0278
     31 H           7.9579   -0.9569   -0.8897 H       1  UNL1        0.0278
     32 H           6.3143    1.4031   -2.0675 H       1  UNL1        0.0620
     33 H           3.8893    1.7271   -2.3396 H       1  UNL1        0.0624
     34 H           5.6449   -1.2581    1.2823 H       1  UNL1        0.0639
     35 H           1.4129    1.8057   -2.2836 H       1  UNL1        0.0624
     36 H          -1.0062    1.6229   -1.9196 H       1  UNL1        0.0624
     37 H          -2.8076   -0.3360   -2.1258 H       1  UNL1        0.0631
     38 H          -7.1147   -0.0471    1.1351 H       1  UNL1        0.1553
     39 H          -4.0828    0.6858    3.5765 H       1  UNL1        0.0278
     40 H          -5.5178    1.4021    2.8282 H       1  UNL1        0.0278
     41 H          -5.4529   -0.3504    3.1631 H       1  UNL1        0.0278
     42 H          -2.2584    0.6129    2.0700 H       1  UNL1        0.0627
     43 H          -0.3577   -1.1110    1.3824 H       1  UNL1        0.0643
@<TRIPOS>BOND
     1     1     2    1
     2     2     3   ar
     3     3     4   ar
     4     4     5   ar
     5     5     6   ar
     6     6     7   ar
     7     5     8    1
     8     8     9   ar
     9     9    10   ar
    10    10    11   ar
    11    11    12    1
    12    12    13   ar
    13    13    14   ar
    14    14    15    1
    15    15    16    2
    16    14    17   ar
    17    17    18    1
    18    18    19   am
    19    19    20    2
    20    17    21   ar
    21    21    22    1
    22    21    23   ar
    23    11    24   ar
    24    24    25   ar
    25    25    26    1
    26    26    27    2
    27    26    28    2
    28     7     2   ar
    29    26     6    1
    30    25     8   ar
    31    23    12   ar
    32    19    15    1
    33     1    29    1
    34     1    30    1
    35     1    31    1
    36     3    32    1
    37     4    33    1
    38     7    34    1
    39     9    35    1
    40    10    36    1
    41    13    37    1
    42    18    38    1
    43    22    39    1
    44    22    40    1
    45    22    41    1
    46    23    42    1
    47    24    43    1
