@<TRIPOS>MOLECULE
*****
 44 48 0 0 0
SMALL
GASTEIGER

@<TRIPOS>ATOM
      1 C          -7.7468    0.1025    0.5740 C.3     1  UNL1       -0.0397
      2 C          -6.2852   -0.0375    0.2597 C.ar    1  UNL1       -0.0486
      3 C          -5.8718   -0.7850   -0.8653 C.ar    1  UNL1       -0.0582
      4 C          -4.5131   -0.9632   -1.1726 C.ar    1  UNL1       -0.0519
      5 C          -3.5540   -0.3990   -0.3447 C.ar    1  UNL1        0.0092
      6 C          -3.9967    0.3281    0.7750 C.ar    1  UNL1        0.1016
      7 C          -5.3255    0.5227    1.1074 C.ar    1  UNL1       -0.0329
      8 C          -2.0946   -0.4518   -0.4592 C.ar    1  UNL1        0.0092
      9 C          -1.3185   -1.0728   -1.4246 C.ar    1  UNL1       -0.0516
     10 C           0.0820   -0.9928   -1.3306 C.ar    1  UNL1       -0.0533
     11 C           0.7308   -0.2976   -0.2794 C.ar    1  UNL1       -0.0160
     12 C           2.2008   -0.2385   -0.2127 C.ar    1  UNL1       -0.0172
     13 C           2.8824   -0.6643    0.9421 C.ar    1  UNL1       -0.0486
     14 C           4.2640   -0.5921    0.9658 C.ar    1  UNL1       -0.0166
     15 C           5.2195   -0.9765    2.0562 C.3     1  UNL1        0.0512
     16 C           6.5751   -0.6410    1.4275 C.2     1  UNL1        0.2216
     17 O           7.6724   -0.7838    1.9403 O.2     1  UNL1       -0.2751
     18 C           4.9756   -0.1077   -0.1297 C.ar    1  UNL1        0.0400
     19 N           6.3333   -0.1403    0.1547 N.am    1  UNL1       -0.2847
     20 C           4.3566    0.3225   -1.2885 C.ar    1  UNL1       -0.0284
     21 C           5.1280    0.8528   -2.4545 C.3     1  UNL1       -0.0379
     22 C           2.9529    0.2515   -1.3125 C.ar    1  UNL1       -0.0493
     23 C          -0.0563    0.3295    0.6954 C.ar    1  UNL1       -0.0281
     24 C          -1.4317    0.2327    0.5735 C.ar    1  UNL1        0.1019
     25 S          -2.6113    0.9357    1.6733 S.O2    1  UNL1        0.0262
     26 O          -2.5657    2.3752    1.5375 O.2     1  UNL1       -0.1643
     27 O          -2.5338    0.2353    2.9368 O.2     1  UNL1       -0.1643
     28 H          -7.9423    1.0312    1.1204 H       1  UNL1        0.0278
     29 H          -8.0806   -0.7431    1.1832 H       1  UNL1        0.0278
     30 H          -8.3411    0.1352   -0.3452 H       1  UNL1        0.0278
     31 H          -6.6199   -1.2372   -1.5156 H       1  UNL1        0.0620
     32 H          -4.2359   -1.5412   -2.0491 H       1  UNL1        0.0624
     33 H          -5.6009    1.0892    1.9917 H       1  UNL1        0.0639
     34 H          -1.7679   -1.6211   -2.2472 H       1  UNL1        0.0624
     35 H           0.6809   -1.4963   -2.0896 H       1  UNL1        0.0624
     36 H           2.3404   -1.0526    1.8002 H       1  UNL1        0.0627
     37 H           5.1684   -2.0465    2.2716 H       1  UNL1        0.0408
     38 H           5.0681   -0.3679    2.9511 H       1  UNL1        0.0408
     39 H           7.0739    0.1549   -0.4628 H       1  UNL1        0.1548
     40 H           5.6533    1.7714   -2.1744 H       1  UNL1        0.0278
     41 H           4.4703    1.0860   -3.2984 H       1  UNL1        0.0278
     42 H           5.8561    0.1111   -2.7986 H       1  UNL1        0.0278
     43 H           2.4225    0.5960   -2.2002 H       1  UNL1        0.0627
     44 H           0.3861    0.8841    1.5179 H       1  UNL1        0.0643
@<TRIPOS>BOND
     1     1     2    1
     2     2     3   ar
     3     3     4   ar
     4     4     5   ar
     5     5     6   ar
     6     6     7   ar
     7     5     8    1
     8     8     9   ar
     9     9    10   ar
    10    10    11   ar
    11    11    12    1
    12    12    13   ar
    13    13    14   ar
    14    14    15    1
    15    15    16    1
    16    16    17    2
    17    14    18   ar
    18    18    19    1
    19    18    20   ar
    20    20    21    1
    21    20    22   ar
    22    11    23   ar
    23    23    24   ar
    24    24    25    1
    25    25    26    2
    26    25    27    2
    27     7     2   ar
    28    25     6    1
    29    24     8   ar
    30    22    12   ar
    31    19    16   am
    32     1    28    1
    33     1    29    1
    34     1    30    1
    35     3    31    1
    36     4    32    1
    37     7    33    1
    38     9    34    1
    39    10    35    1
    40    13    36    1
    41    15    37    1
    42    15    38    1
    43    19    39    1
    44    21    40    1
    45    21    41    1
    46    21    42    1
    47    22    43    1
    48    23    44    1
