@<TRIPOS>MOLECULE
*****
 41 44 0 0 0
SMALL
GASTEIGER

@<TRIPOS>ATOM
      1 C           7.2682    0.1063    0.5443 C.3     1  UNL1       -0.0397
      2 C           5.7921   -0.1343    0.4121 C.ar    1  UNL1       -0.0486
      3 C           5.3111   -1.4232    0.0920 C.ar    1  UNL1       -0.0582
      4 C           3.9397   -1.6784   -0.0707 C.ar    1  UNL1       -0.0519
      5 C           3.0367   -0.6361    0.0772 C.ar    1  UNL1        0.0092
      6 C           3.5472    0.6383    0.3828 C.ar    1  UNL1        0.1016
      7 C           4.8904    0.9250    0.5490 C.ar    1  UNL1       -0.0329
      8 C           1.5774   -0.6596   -0.0460 C.ar    1  UNL1        0.0092
      9 C           0.7447   -1.7297   -0.3304 C.ar    1  UNL1       -0.0516
     10 C          -0.6431   -1.5156   -0.3954 C.ar    1  UNL1       -0.0532
     11 C          -1.2236   -0.2407   -0.1819 C.ar    1  UNL1       -0.0124
     12 C          -2.6858   -0.0568   -0.2413 C.ar    1  UNL1        0.0271
     13 C          -3.3723    0.4446    0.8792 C.ar    1  UNL1       -0.0087
     14 C          -4.7561    0.6280    0.8464 C.ar    1  UNL1        0.1206
     15 O          -5.4124    1.1134    1.9426 O.3     1  UNL1       -0.5065
     16 C          -5.5001    0.3215   -0.2950 C.ar    1  UNL1       -0.0055
     17 C          -4.8289   -0.1776   -1.4174 C.ar    1  UNL1       -0.0132
     18 C          -3.4425   -0.3619   -1.3862 C.ar    1  UNL1        0.1250
     19 O          -2.8080   -0.8399   -2.5029 O.3     1  UNL1       -0.5061
     20 C          -6.9876    0.5215   -0.3216 C.3     1  UNL1       -0.0361
     21 C          -0.3788    0.8405    0.1037 C.ar    1  UNL1       -0.0280
     22 C           0.9825    0.5967    0.1611 C.ar    1  UNL1        0.1019
     23 S           2.2246    1.7916    0.5105 S.O2    1  UNL1        0.0262
     24 O           2.3063    2.7151   -0.6000 O.2     1  UNL1       -0.1643
     25 O           2.0947    2.1958    1.8939 O.2     1  UNL1       -0.1643
     26 H           7.4692    0.9405    1.2247 H       1  UNL1        0.0278
     27 H           7.7710   -0.7758    0.9545 H       1  UNL1        0.0278
     28 H           7.6983    0.3373   -0.4350 H       1  UNL1        0.0278
     29 H           6.0152   -2.2451   -0.0334 H       1  UNL1        0.0620
     30 H           3.6086   -2.6838   -0.3130 H       1  UNL1        0.0624
     31 H           5.2200    1.9340    0.7763 H       1  UNL1        0.0639
     32 H           1.1385   -2.7263   -0.5049 H       1  UNL1        0.0624
     33 H          -1.2909   -2.3626   -0.6221 H       1  UNL1        0.0624
     34 H          -2.8144    0.6805    1.7819 H       1  UNL1        0.0661
     35 H          -4.7658    1.2851    2.6469 H       1  UNL1        0.2921
     36 H          -5.3949   -0.4206   -2.3123 H       1  UNL1        0.0658
     37 H          -3.4506   -0.9062   -3.2276 H       1  UNL1        0.2922
     38 H          -7.2319    1.5748   -0.1500 H       1  UNL1        0.0279
     39 H          -7.4142    0.2349   -1.2886 H       1  UNL1        0.0279
     40 H          -7.4667   -0.0926    0.4478 H       1  UNL1        0.0279
     41 H          -0.7676    1.8413    0.2655 H       1  UNL1        0.0643
@<TRIPOS>BOND
     1     1     2    1
     2     2     3   ar
     3     3     4   ar
     4     4     5   ar
     5     5     6   ar
     6     6     7   ar
     7     5     8    1
     8     8     9   ar
     9     9    10   ar
    10    10    11   ar
    11    11    12    1
    12    12    13   ar
    13    13    14   ar
    14    14    15    1
    15    14    16   ar
    16    16    17   ar
    17    17    18   ar
    18    18    19    1
    19    16    20    1
    20    11    21   ar
    21    21    22   ar
    22    22    23    1
    23    23    24    2
    24    23    25    2
    25     7     2   ar
    26    23     6    1
    27    22     8   ar
    28    18    12   ar
    29     1    26    1
    30     1    27    1
    31     1    28    1
    32     3    29    1
    33     4    30    1
    34     7    31    1
    35     9    32    1
    36    10    33    1
    37    13    34    1
    38    15    35    1
    39    17    36    1
    40    19    37    1
    41    20    38    1
    42    20    39    1
    43    20    40    1
    44    21    41    1
