@<TRIPOS>MOLECULE
*****
 39 42 0 0 0
SMALL
GASTEIGER

@<TRIPOS>ATOM
      1 C           6.8766   -0.9950    0.1152 C.3     1  UNL1       -0.0397
      2 C           5.4447   -0.5453    0.0737 C.ar    1  UNL1       -0.0486
      3 C           5.1225    0.7496   -0.3892 C.ar    1  UNL1       -0.0582
      4 C           3.7923    1.1928   -0.4716 C.ar    1  UNL1       -0.0519
      5 C           2.7698    0.3333   -0.0981 C.ar    1  UNL1        0.0092
      6 C           3.1217   -0.9539    0.3459 C.ar    1  UNL1        0.1016
      7 C           4.4199   -1.4229    0.4388 C.ar    1  UNL1       -0.0329
      8 C           1.3242    0.5677   -0.1004 C.ar    1  UNL1        0.0092
      9 C           0.6270    1.7058   -0.4716 C.ar    1  UNL1       -0.0515
     10 C          -0.7781    1.7063   -0.3908 C.ar    1  UNL1       -0.0519
     11 C          -1.5161    0.5812    0.0619 C.ar    1  UNL1        0.0023
     12 C          -2.9919    0.5963    0.1418 C.ar    1  UNL1        0.0748
     13 C          -3.7221    1.7319    0.4831 C.ar    1  UNL1        0.0058
     14 C          -5.1054    1.6348    0.5297 C.ar    1  UNL1        0.1206
     15 O          -5.8870    2.7035    0.8594 O.3     1  UNL1       -0.5066
     16 C          -5.7395    0.4385    0.2443 C.ar    1  UNL1        0.0009
     17 C          -4.9516   -0.6545   -0.0797 C.ar    1  UNL1        0.0424
     18 C          -5.5864   -1.9761   -0.3912 C.3     1  UNL1       -0.0222
     19 N          -3.5992   -0.5877   -0.1294 N.ar    1  UNL1       -0.2516
     20 C          -0.7999   -0.5711    0.4255 C.ar    1  UNL1       -0.0267
     21 C           0.5811   -0.5408    0.3365 C.ar    1  UNL1        0.1019
     22 S           1.6679   -1.8605    0.7513 S.O2    1  UNL1        0.0262
     23 O           1.6351   -2.0535    2.1849 O.2     1  UNL1       -0.1643
     24 O           1.5064   -2.9225   -0.2174 O.2     1  UNL1       -0.1643
     25 H           7.0262   -1.7531    0.8911 H       1  UNL1        0.0278
     26 H           7.1636   -1.4179   -0.8524 H       1  UNL1        0.0278
     27 H           7.5412   -0.1564    0.3480 H       1  UNL1        0.0278
     28 H           5.9203    1.4271   -0.6919 H       1  UNL1        0.0620
     29 H           3.5860    2.1970   -0.8293 H       1  UNL1        0.0624
     30 H           4.6231   -2.4326    0.7823 H       1  UNL1        0.0639
     31 H           1.1419    2.5925   -0.8296 H       1  UNL1        0.0624
     32 H          -1.3024    2.6049   -0.7135 H       1  UNL1        0.0624
     33 H          -3.2218    2.6614    0.7231 H       1  UNL1        0.0675
     34 H          -5.3190    3.4639    1.0664 H       1  UNL1        0.2921
     35 H          -6.8205    0.3637    0.2805 H       1  UNL1        0.0672
     36 H          -6.1636   -2.3305    0.4684 H       1  UNL1        0.0293
     37 H          -4.8258   -2.7283   -0.6245 H       1  UNL1        0.0293
     38 H          -6.2497   -1.8826   -1.2567 H       1  UNL1        0.0293
     39 H          -1.3112   -1.4670    0.7694 H       1  UNL1        0.0643
@<TRIPOS>BOND
     1     1     2    1
     2     2     3   ar
     3     3     4   ar
     4     4     5   ar
     5     5     6   ar
     6     6     7   ar
     7     5     8    1
     8     8     9   ar
     9     9    10   ar
    10    10    11   ar
    11    11    12    1
    12    12    13   ar
    13    13    14   ar
    14    14    15    1
    15    14    16   ar
    16    16    17   ar
    17    17    18    1
    18    17    19   ar
    19    11    20   ar
    20    20    21   ar
    21    21    22    1
    22    22    23    2
    23    22    24    2
    24     7     2   ar
    25    22     6    1
    26    21     8   ar
    27    19    12   ar
    28     1    25    1
    29     1    26    1
    30     1    27    1
    31     3    28    1
    32     4    29    1
    33     7    30    1
    34     9    31    1
    35    10    32    1
    36    13    33    1
    37    15    34    1
    38    16    35    1
    39    18    36    1
    40    18    37    1
    41    18    38    1
    42    20    39    1
