@<TRIPOS>MOLECULE
*****
 40 46 0 0 0
SMALL
GASTEIGER

@<TRIPOS>ATOM
      1 SI         -4.4823   -1.7864   -2.3514 Si      1  UNL1        0.0000
      2 C          -5.6043   -1.0101   -1.0736 C.2     1  UNL1        0.0000
      3 C          -4.9013   -0.2242   -0.2373 C.ar    1  UNL1        0.0000
      4 C          -5.4684    0.5527    0.8446 C.ar    1  UNL1        0.0000
      5 C          -4.6498    1.3214    1.5853 C.ar    1  UNL1        0.0000
      6 C          -3.2096    1.3812    1.3426 C.ar    1  UNL1        0.0000
      7 C          -2.5899    0.6783    0.3630 C.ar    1  UNL1        0.0000
      8 C          -1.1731    0.8057    0.2752 C.ar    1  UNL1        0.0000
      9 C          -0.3092    1.8942    0.1860 C.ar    1  UNL1        0.0000
     10 C           0.9721    1.3474    0.1467 C.ar    1  UNL1        0.0000
     11 C           2.2688    1.9418    0.0500 C.ar    1  UNL1        0.0000
     12 C           2.4853    3.2896   -0.0298 C.ar    1  UNL1        0.0000
     13 S           4.1857    3.6027   -0.1326 S.2     1  UNL1        0.0000
     14 C           4.5922    1.9194   -0.0680 C.ar    1  UNL1        0.0000
     15 C           3.4518    1.1700    0.0284 C.ar    1  UNL1        0.0000
     16 C           3.3882   -0.2495    0.1034 C.ar    1  UNL1        0.0000
     17 C           4.4661   -1.1189    0.0921 C.ar    1  UNL1        0.0000
     18 O           5.8230   -1.0227    0.0176 O.2     1  UNL1        0.0000
     19 C           6.2677   -2.3082    0.0601 C.ar    1  UNL1        0.0000
     20 C           5.2506   -3.2269    0.1586 C.ar    1  UNL1        0.0000
     21 C           4.0809   -2.4263    0.1779 C.ar    1  UNL1        0.0000
     22 S           2.3333   -2.5808    0.2748 S.2     1  UNL1        0.0000
     23 C           2.1845   -0.8869    0.1975 C.ar    1  UNL1        0.0000
     24 C           0.9078   -0.0196    0.2190 C.ar    1  UNL1        0.0000
     25 N          -0.4103   -0.3533    0.3058 N.ar    1  UNL1        0.0000
     26 C          -3.4406   -0.1619   -0.4972 C.ar    1  UNL1        0.0000
     27 C          -3.0399   -0.8949   -1.5574 C.2     1  UNL1        0.0000
     28 H          -4.7635   -1.3035   -3.7245 H       1  UNL1        0.0000
     29 H          -4.3817   -3.2577   -2.1952 H       1  UNL1        0.0000
     30 H          -6.6675   -1.1887   -1.0687 H       1  UNL1        0.0000
     31 H          -6.5349    0.5139    1.0343 H       1  UNL1        0.0000
     32 H          -5.0431    1.9211    2.4004 H       1  UNL1        0.0000
     33 H          -2.6456    2.0160    2.0219 H       1  UNL1        0.0000
     34 H          -0.6048    2.9336    0.1470 H       1  UNL1        0.0000
     35 H           1.7791    4.1076   -0.0359 H       1  UNL1        0.0000
     36 H           5.6279    1.6110   -0.1055 H       1  UNL1        0.0000
     37 H           7.3438   -2.4111    0.0104 H       1  UNL1        0.0000
     38 H           5.3351   -4.3018    0.2089 H       1  UNL1        0.0000
     39 H          -0.7790   -1.2918    0.3841 H       1  UNL1        0.0000
     40 H          -2.0450   -0.9824   -1.9630 H       1  UNL1        0.0000
@<TRIPOS>BOND
     1     1     2    1
     2     2     3    2
     3     3     4   ar
     4     4     5   ar
     5     5     6   ar
     6     6     7   ar
     7     7     8    1
     8     8     9   ar
     9     9    10   ar
    10    10    11   ar
    11    11    12   ar
    12    12    13   ar
    13    13    14   ar
    14    14    15   ar
    15    15    16   ar
    16    16    17   ar
    17    17    18   ar
    18    18    19   ar
    19    19    20   ar
    20    20    21   ar
    21    21    22   ar
    22    22    23   ar
    23    23    24   ar
    24    24    25   ar
    25     7    26   ar
    26    26    27    2
    27    27     1    1
    28    26     3   ar
    29    25     8   ar
    30    24    10   ar
    31    15    11   ar
    32    23    16   ar
    33    21    17   ar
    34     1    28    1
    35     1    29    1
    36     2    30    1
    37     4    31    1
    38     5    32    1
    39     6    33    1
    40     9    34    1
    41    12    35    1
    42    14    36    1
    43    19    37    1
    44    20    38    1
    45    25    39    1
    46    27    40    1
