@<TRIPOS>MOLECULE
*****
 40 43 0 0 0
SMALL
GASTEIGER

@<TRIPOS>ATOM
      1 C           7.1318   -0.5314    0.3097 C.3     1  UNL1       -0.0397
      2 C           5.6611   -0.2296    0.2910 C.ar    1  UNL1       -0.0486
      3 C           5.1594    0.8892    0.9921 C.ar    1  UNL1       -0.0582
      4 C           3.7866    1.1846    1.0227 C.ar    1  UNL1       -0.0519
      5 C           2.9016    0.3507    0.3557 C.ar    1  UNL1        0.0092
      6 C           3.4302   -0.7626   -0.3221 C.ar    1  UNL1        0.1016
      7 C           4.7750   -1.0833   -0.3723 C.ar    1  UNL1       -0.0329
      8 C           1.4443    0.4532    0.2497 C.ar    1  UNL1        0.0092
      9 C           0.5975    1.4118    0.7825 C.ar    1  UNL1       -0.0516
     10 C          -0.7846    1.3093    0.5464 C.ar    1  UNL1       -0.0533
     11 C          -1.3457    0.2570   -0.2201 C.ar    1  UNL1       -0.0160
     12 C          -2.7986    0.1858   -0.4487 C.ar    1  UNL1       -0.0174
     13 C          -3.3214    0.0889   -1.7485 C.ar    1  UNL1       -0.0506
     14 C          -4.6996    0.0220   -1.9678 C.ar    1  UNL1       -0.0193
     15 C          -5.5720    0.0510   -0.8835 C.ar    1  UNL1        0.1198
     16 C          -5.0910    0.1470    0.4238 C.ar    1  UNL1       -0.0085
     17 C          -6.0333    0.1696    1.5921 C.3     1  UNL1       -0.0362
     18 C          -3.7032    0.2122    0.6281 C.ar    1  UNL1       -0.0477
     19 O          -6.9219   -0.0149   -1.0826 O.3     1  UNL1       -0.5065
     20 C          -0.4867   -0.7113   -0.7569 C.ar    1  UNL1       -0.0281
     21 C           0.8684   -0.5822   -0.5060 C.ar    1  UNL1        0.1019
     22 S           2.1264   -1.6706   -1.0782 S.O2    1  UNL1        0.0262
     23 O           1.9871   -2.9374   -0.3939 O.2     1  UNL1       -0.1643
     24 O           2.2361   -1.5304   -2.5140 O.2     1  UNL1       -0.1643
     25 H           7.4316   -1.0729   -0.5937 H       1  UNL1        0.0278
     26 H           7.7182    0.3928    0.3441 H       1  UNL1        0.0278
     27 H           7.3770   -1.1407    1.1849 H       1  UNL1        0.0278
     28 H           5.8482    1.5443    1.5245 H       1  UNL1        0.0620
     29 H           3.4406    2.0567    1.5694 H       1  UNL1        0.0624
     30 H           5.1177   -1.9634   -0.9075 H       1  UNL1        0.0639
     31 H           0.9779    2.2397    1.3733 H       1  UNL1        0.0624
     32 H          -1.4385    2.0770    0.9607 H       1  UNL1        0.0624
     33 H          -2.6529    0.0757   -2.6074 H       1  UNL1        0.0625
     34 H          -5.0686   -0.0498   -2.9861 H       1  UNL1        0.0654
     35 H          -6.6040   -0.7635    1.6362 H       1  UNL1        0.0279
     36 H          -6.7244    1.0144    1.5065 H       1  UNL1        0.0279
     37 H          -5.4955    0.2771    2.5400 H       1  UNL1        0.0279
     38 H          -3.3200    0.2716    1.6457 H       1  UNL1        0.0627
     39 H          -7.0934   -0.0921   -2.0351 H       1  UNL1        0.2921
     40 H          -0.8613   -1.5456   -1.3429 H       1  UNL1        0.0643
@<TRIPOS>BOND
     1     1     2    1
     2     2     3   ar
     3     3     4   ar
     4     4     5   ar
     5     5     6   ar
     6     6     7   ar
     7     5     8    1
     8     8     9   ar
     9     9    10   ar
    10    10    11   ar
    11    11    12    1
    12    12    13   ar
    13    13    14   ar
    14    14    15   ar
    15    15    16   ar
    16    16    17    1
    17    16    18   ar
    18    15    19    1
    19    11    20   ar
    20    20    21   ar
    21    21    22    1
    22    22    23    2
    23    22    24    2
    24     7     2   ar
    25    22     6    1
    26    21     8   ar
    27    18    12   ar
    28     1    25    1
    29     1    26    1
    30     1    27    1
    31     3    28    1
    32     4    29    1
    33     7    30    1
    34     9    31    1
    35    10    32    1
    36    13    33    1
    37    14    34    1
    38    17    35    1
    39    17    36    1
    40    17    37    1
    41    18    38    1
    42    19    39    1
    43    20    40    1
