@<TRIPOS>MOLECULE
*****
 39 42 0 0 0
SMALL
GASTEIGER

@<TRIPOS>ATOM
      1 C          -7.0810   -0.1438   -0.1790 C.3     1  UNL1       -0.0397
      2 C          -5.5899   -0.2822   -0.2893 C.ar    1  UNL1       -0.0486
      3 C          -5.0295   -1.1572   -1.2461 C.ar    1  UNL1       -0.0582
      4 C          -3.6397   -1.2890   -1.3993 C.ar    1  UNL1       -0.0519
      5 C          -2.7975   -0.5332   -0.5974 C.ar    1  UNL1        0.0092
      6 C          -3.3857    0.3389    0.3367 C.ar    1  UNL1        0.1016
      7 C          -4.7489    0.4938    0.5135 C.ar    1  UNL1       -0.0329
      8 C          -1.3333   -0.4990   -0.5778 C.ar    1  UNL1        0.0092
      9 C          -0.4339   -1.2181   -1.3476 C.ar    1  UNL1       -0.0516
     10 C           0.9451   -1.0217   -1.1517 C.ar    1  UNL1       -0.0532
     11 C           1.4529   -0.1100   -0.1910 C.ar    1  UNL1       -0.0103
     12 C           2.9042    0.0681   -0.0134 C.ar    1  UNL1        0.0471
     13 C           3.4957    0.0406    1.2549 C.ar    1  UNL1       -0.0424
     14 C           4.8706    0.2109    1.4105 C.ar    1  UNL1        0.0069
     15 C           5.6834    0.4131    0.2888 C.ar    1  UNL1        0.1923
     16 C           7.1624    0.5963    0.3941 C.3     1  UNL1        0.0220
     17 N           5.1188    0.4413   -0.9833 N.ar    1  UNL1       -0.1743
     18 O           5.8282    0.6140   -2.0254 O.co2   1  UNL1       -0.6196
     19 C           3.7465    0.2717   -1.1126 C.ar    1  UNL1        0.1907
     20 C           0.5386    0.6166    0.5846 C.ar    1  UNL1       -0.0280
     21 C          -0.8118    0.3992    0.3674 C.ar    1  UNL1        0.1019
     22 S          -2.1291    1.1915    1.2242 S.O2    1  UNL1        0.0262
     23 O          -2.1508    2.5860    0.8408 O.2     1  UNL1       -0.1643
     24 O          -2.1258    0.7248    2.5935 O.2     1  UNL1       -0.1643
     25 H          -7.5772   -1.0951   -0.3979 H       1  UNL1        0.0278
     26 H          -7.3727    0.1490    0.8351 H       1  UNL1        0.0278
     27 H          -7.4389    0.6140   -0.8825 H       1  UNL1        0.0278
     28 H          -5.6855   -1.7480   -1.8847 H       1  UNL1        0.0620
     29 H          -3.2482   -1.9757   -2.1439 H       1  UNL1        0.0624
     30 H          -5.1396    1.1914    1.2478 H       1  UNL1        0.0639
     31 H          -0.7708   -1.9310   -2.0947 H       1  UNL1        0.0624
     32 H           1.6352   -1.6078   -1.7593 H       1  UNL1        0.0624
     33 H           2.8868   -0.1278    2.1429 H       1  UNL1        0.0627
     34 H           5.3062    0.1824    2.4068 H       1  UNL1        0.0680
     35 H           7.6828   -0.2151   -0.1243 H       1  UNL1        0.0337
     36 H           7.4903    0.5917    1.4388 H       1  UNL1        0.0337
     37 H           7.4604    1.5542   -0.0437 H       1  UNL1        0.0337
     38 H           3.4201    0.3256   -2.1412 H       1  UNL1        0.1396
     39 H           0.8615    1.3394    1.3284 H       1  UNL1        0.0643
@<TRIPOS>UNITY_ATOM_ATTR
17 1
charge 1
18 1
charge -1
@<TRIPOS>BOND
     1     1     2    1
     2     2     3   ar
     3     3     4   ar
     4     4     5   ar
     5     5     6   ar
     6     6     7   ar
     7     5     8    1
     8     8     9   ar
     9     9    10   ar
    10    10    11   ar
    11    11    12    1
    12    12    13   ar
    13    13    14   ar
    14    14    15   ar
    15    15    16    1
    16    15    17   ar
    17    17    18    1
    18    17    19   ar
    19    11    20   ar
    20    20    21   ar
    21    21    22    1
    22    22    23    2
    23    22    24    2
    24     7     2   ar
    25    22     6    1
    26    21     8   ar
    27    19    12   ar
    28     1    25    1
    29     1    26    1
    30     1    27    1
    31     3    28    1
    32     4    29    1
    33     7    30    1
    34     9    31    1
    35    10    32    1
    36    13    33    1
    37    14    34    1
    38    16    35    1
    39    16    36    1
    40    16    37    1
    41    19    38    1
    42    20    39    1
