@<TRIPOS>MOLECULE
*****
 40 44 0 0 0
SMALL
GASTEIGER

@<TRIPOS>ATOM
      1 C          -7.2177    0.2814    0.4833 C.3     1  UNL1       -0.0397
      2 C          -5.7461    0.1034    0.2445 C.ar    1  UNL1       -0.0486
      3 C          -5.2913   -0.8599   -0.6831 C.ar    1  UNL1       -0.0582
      4 C          -3.9221   -1.0761   -0.9091 C.ar    1  UNL1       -0.0519
      5 C          -2.9944   -0.3316   -0.1961 C.ar    1  UNL1        0.0092
      6 C          -3.4780    0.6103    0.7299 C.ar    1  UNL1        0.1016
      7 C          -4.8181    0.8483    0.9778 C.ar    1  UNL1       -0.0329
      8 C          -1.5320   -0.3822   -0.2584 C.ar    1  UNL1        0.0092
      9 C          -0.7203   -1.1771   -1.0503 C.ar    1  UNL1       -0.0516
     10 C           0.6762   -1.0514   -0.9412 C.ar    1  UNL1       -0.0533
     11 C           1.2894   -0.1407   -0.0444 C.ar    1  UNL1       -0.0139
     12 C           2.7499   -0.0213    0.0384 C.ar    1  UNL1        0.0104
     13 C           3.4230    1.2200   -0.0596 C.ar    1  UNL1       -0.0516
     14 C           4.8286    1.3680    0.0219 C.ar    1  UNL1       -0.0561
     15 C           5.7232    0.2921    0.2130 C.ar    1  UNL1       -0.0223
     16 C           7.1983    0.5426    0.2888 C.3     1  UNL1       -0.0376
     17 C           5.1073   -0.9856    0.3231 C.ar    1  UNL1        0.1034
     18 N           5.7507   -2.1502    0.5101 N.ar    1  UNL1       -0.1905
     19 S           4.5937   -3.3321    0.5857 S.2     1  UNL1        0.1165
     20 N           3.2192   -2.4352    0.3707 N.ar    1  UNL1       -0.1902
     21 C           3.6009   -1.1513    0.2354 C.ar    1  UNL1        0.1078
     22 C           0.4634    0.6632    0.7540 C.ar    1  UNL1       -0.0281
     23 C          -0.9072    0.5163    0.6221 C.ar    1  UNL1        0.1019
     24 S          -2.1263    1.4183    1.5138 S.O2    1  UNL1        0.0262
     25 O          -2.0805    1.0098    2.9006 O.2     1  UNL1       -0.1643
     26 O          -2.0885    2.7956    1.0718 O.2     1  UNL1       -0.1643
     27 H          -7.5593   -0.4203    1.2503 H       1  UNL1        0.0278
     28 H          -7.4399    1.3017    0.8130 H       1  UNL1        0.0278
     29 H          -7.7852    0.1065   -0.4368 H       1  UNL1        0.0278
     30 H          -6.0145   -1.4540   -1.2408 H       1  UNL1        0.0620
     31 H          -3.6121   -1.8237   -1.6332 H       1  UNL1        0.0624
     32 H          -5.1258    1.5851    1.7133 H       1  UNL1        0.0639
     33 H          -1.1371   -1.8942   -1.7513 H       1  UNL1        0.0624
     34 H           1.2991   -1.6837   -1.5747 H       1  UNL1        0.0624
     35 H           2.8331    2.1251   -0.2187 H       1  UNL1        0.0624
     36 H           5.2373    2.3764   -0.0707 H       1  UNL1        0.0621
     37 H           7.4235    1.2053    1.1305 H       1  UNL1        0.0278
     38 H           7.7614   -0.3848    0.4297 H       1  UNL1        0.0278
     39 H           7.5476    1.0113   -0.6368 H       1  UNL1        0.0278
     40 H           0.8707    1.3748    1.4663 H       1  UNL1        0.0643
@<TRIPOS>BOND
     1     1     2    1
     2     2     3   ar
     3     3     4   ar
     4     4     5   ar
     5     5     6   ar
     6     6     7   ar
     7     5     8    1
     8     8     9   ar
     9     9    10   ar
    10    10    11   ar
    11    11    12    1
    12    12    13   ar
    13    13    14   ar
    14    14    15   ar
    15    15    16    1
    16    15    17   ar
    17    17    18   ar
    18    18    19   ar
    19    19    20   ar
    20    20    21   ar
    21    11    22   ar
    22    22    23   ar
    23    23    24    1
    24    24    25    2
    25    24    26    2
    26     7     2   ar
    27    24     6    1
    28    23     8   ar
    29    21    12   ar
    30    21    17   ar
    31     1    27    1
    32     1    28    1
    33     1    29    1
    34     3    30    1
    35     4    31    1
    36     7    32    1
    37     9    33    1
    38    10    34    1
    39    13    35    1
    40    14    36    1
    41    16    37    1
    42    16    38    1
    43    16    39    1
    44    22    40    1
