@<TRIPOS>MOLECULE
*****
 40 44 0 0 0
SMALL
GASTEIGER

@<TRIPOS>ATOM
      1 C          -7.2000   -0.3513   -0.6183 C.3     1  UNL1       -0.0397
      2 C          -5.7362   -0.1447   -0.3553 C.ar    1  UNL1       -0.0486
      3 C          -5.3180    0.7601    0.6455 C.ar    1  UNL1       -0.0582
      4 C          -3.9589    0.9565    0.9398 C.ar    1  UNL1       -0.0519
      5 C          -3.0049    0.2363    0.2365 C.ar    1  UNL1        0.0092
      6 C          -3.4531   -0.6666   -0.7445 C.ar    1  UNL1        0.1016
      7 C          -4.7823   -0.8850   -1.0595 C.ar    1  UNL1       -0.0329
      8 C          -1.5466    0.2697    0.3679 C.ar    1  UNL1        0.0092
      9 C          -0.7658    1.0290    1.2232 C.ar    1  UNL1       -0.0516
     10 C           0.6331    0.8923    1.1747 C.ar    1  UNL1       -0.0533
     11 C           1.2794    0.0060    0.2768 C.ar    1  UNL1       -0.0139
     12 C           2.7411   -0.1258    0.2577 C.ar    1  UNL1        0.0104
     13 C           3.3978   -1.3767    0.3442 C.ar    1  UNL1       -0.0516
     14 C           4.8043   -1.5366    0.3229 C.ar    1  UNL1       -0.0561
     15 C           5.7163   -0.4643    0.2104 C.ar    1  UNL1       -0.0223
     16 C           5.1176    0.8228    0.1157 C.ar    1  UNL1        0.1034
     17 N           5.7794    1.9863   -0.0013 N.ar    1  UNL1       -0.1905
     18 S           4.6378    3.1821   -0.0899 S.2     1  UNL1        0.1165
     19 N           3.2468    2.2929    0.0304 N.ar    1  UNL1       -0.1902
     20 C           3.6104    1.0012    0.1392 C.ar    1  UNL1        0.1078
     21 C           7.1912   -0.7275    0.1945 C.3     1  UNL1       -0.0376
     22 C           0.4844   -0.7619   -0.5859 C.ar    1  UNL1       -0.0281
     23 C          -0.8895   -0.6052   -0.5128 C.ar    1  UNL1        0.1019
     24 S          -2.0736   -1.4637   -1.4904 S.O2    1  UNL1        0.0262
     25 O          -2.0702   -2.8551   -1.0933 O.2     1  UNL1       -0.1643
     26 O          -1.9580   -1.0104   -2.8591 O.2     1  UNL1       -0.1643
     27 H          -7.7583    0.5776   -0.4618 H       1  UNL1        0.0278
     28 H          -7.5950   -1.1207    0.0521 H       1  UNL1        0.0278
     29 H          -7.3712   -0.6627   -1.6541 H       1  UNL1        0.0278
     30 H          -6.0623    1.3242    1.2066 H       1  UNL1        0.0620
     31 H          -3.6771    1.6654    1.7127 H       1  UNL1        0.0624
     32 H          -5.0625   -1.6028   -1.8243 H       1  UNL1        0.0639
     33 H          -1.2084    1.7266    1.9280 H       1  UNL1        0.0624
     34 H           1.2314    1.4965    1.8575 H       1  UNL1        0.0624
     35 H           2.7931   -2.2804    0.4448 H       1  UNL1        0.0624
     36 H           5.1993   -2.5518    0.3997 H       1  UNL1        0.0621
     37 H           7.4927   -1.2308    1.1186 H       1  UNL1        0.0278
     38 H           7.4494   -1.3636   -0.6581 H       1  UNL1        0.0278
     39 H           7.7684    0.1981    0.1116 H       1  UNL1        0.0278
     40 H           0.9182   -1.4533   -1.3026 H       1  UNL1        0.0643
@<TRIPOS>BOND
     1     1     2    1
     2     2     3   ar
     3     3     4   ar
     4     4     5   ar
     5     5     6   ar
     6     6     7   ar
     7     5     8    1
     8     8     9   ar
     9     9    10   ar
    10    10    11   ar
    11    11    12    1
    12    12    13   ar
    13    13    14   ar
    14    14    15   ar
    15    15    16   ar
    16    16    17   ar
    17    17    18   ar
    18    18    19   ar
    19    19    20   ar
    20    15    21    1
    21    11    22   ar
    22    22    23   ar
    23    23    24    1
    24    24    25    2
    25    24    26    2
    26     7     2   ar
    27    24     6    1
    28    23     8   ar
    29    20    12   ar
    30    20    16   ar
    31     1    27    1
    32     1    28    1
    33     1    29    1
    34     3    30    1
    35     4    31    1
    36     7    32    1
    37     9    33    1
    38    10    34    1
    39    13    35    1
    40    14    36    1
    41    21    37    1
    42    21    38    1
    43    21    39    1
    44    22    40    1
