@<TRIPOS>MOLECULE
*****
 38 41 0 0 0
SMALL
GASTEIGER

@<TRIPOS>ATOM
      1 C          -6.8034    0.8096    0.3165 C.3     1  UNL1       -0.0397
      2 C          -5.3365    0.4938    0.3706 C.ar    1  UNL1       -0.0486
      3 C          -4.8599   -0.5048    1.2486 C.ar    1  UNL1       -0.0582
      4 C          -3.4992   -0.8478    1.3051 C.ar    1  UNL1       -0.0519
      5 C          -2.6036   -0.1963    0.4703 C.ar    1  UNL1        0.0092
      6 C          -3.1106    0.7837   -0.4023 C.ar    1  UNL1        0.1016
      7 C          -4.4432    1.1459   -0.4842 C.ar    1  UNL1       -0.0329
      8 C          -1.1559   -0.3835    0.3506 C.ar    1  UNL1        0.0092
      9 C          -0.3299   -1.2579    1.0377 C.ar    1  UNL1       -0.0515
     10 C           1.0474   -1.2698    0.7516 C.ar    1  UNL1       -0.0521
     11 C           1.6203   -0.4088   -0.2134 C.ar    1  UNL1        0.0020
     12 C           3.0438   -0.4250   -0.5194 C.2     1  UNL1        0.1004
     13 C           3.7157   -0.4171   -1.6798 C.2     1  UNL1       -0.0344
     14 C           5.1495   -0.3420   -1.5086 C.2     1  UNL1       -0.0390
     15 C           5.5407   -0.2730   -0.2258 C.2     1  UNL1        0.0680
     16 S           4.1413   -0.3240    0.8230 S.O2    1  UNL1        0.0216
     17 O           4.0052    0.9534    1.4945 O.2     1  UNL1       -0.1646
     18 O           4.1628   -1.5716    1.5631 O.2     1  UNL1       -0.1646
     19 C           6.9012   -0.1759    0.3453 C.3     1  UNL1       -0.0223
     20 C           0.7856    0.4712   -0.9133 C.ar    1  UNL1       -0.0269
     21 C          -0.5650    0.4551   -0.6086 C.ar    1  UNL1        0.1019
     22 S          -1.7992    1.4599   -1.3597 S.O2    1  UNL1        0.0262
     23 O          -1.5834    2.8315   -0.9555 O.2     1  UNL1       -0.1643
     24 O          -1.9559    1.0332   -2.7333 O.2     1  UNL1       -0.1643
     25 H          -6.9694    1.8449    0.0007 H       1  UNL1        0.0278
     26 H          -7.2631    0.6935    1.3036 H       1  UNL1        0.0278
     27 H          -7.3039    0.1401   -0.3897 H       1  UNL1        0.0278
     28 H          -5.5588   -1.0252    1.9026 H       1  UNL1        0.0620
     29 H          -3.1712   -1.6169    1.9982 H       1  UNL1        0.0624
     30 H          -4.7714    1.9071   -1.1852 H       1  UNL1        0.0639
     31 H          -0.7228   -1.9366    1.7897 H       1  UNL1        0.0624
     32 H           1.6687   -1.9812    1.2966 H       1  UNL1        0.0624
     33 H           3.2574   -0.4413   -2.6595 H       1  UNL1        0.0637
     34 H           5.8238   -0.3308   -2.3552 H       1  UNL1        0.0634
     35 H           7.1072   -1.0311    0.9963 H       1  UNL1        0.0290
     36 H           7.0064    0.7404    0.9341 H       1  UNL1        0.0290
     37 H           7.6632   -0.1602   -0.4406 H       1  UNL1        0.0290
     38 H           1.1662    1.1573   -1.6646 H       1  UNL1        0.0643
@<TRIPOS>BOND
     1     1     2    1
     2     2     3   ar
     3     3     4   ar
     4     4     5   ar
     5     5     6   ar
     6     6     7   ar
     7     5     8    1
     8     8     9   ar
     9     9    10   ar
    10    10    11   ar
    11    11    12    1
    12    12    13    2
    13    13    14    1
    14    14    15    2
    15    15    16    1
    16    16    17    2
    17    16    18    2
    18    15    19    1
    19    11    20   ar
    20    20    21   ar
    21    21    22    1
    22    22    23    2
    23    22    24    2
    24     7     2   ar
    25    22     6    1
    26    21     8   ar
    27    16    12    1
    28     1    25    1
    29     1    26    1
    30     1    27    1
    31     3    28    1
    32     4    29    1
    33     7    30    1
    34     9    31    1
    35    10    32    1
    36    13    33    1
    37    14    34    1
    38    19    35    1
    39    19    36    1
    40    19    37    1
    41    20    38    1
