@<TRIPOS>MOLECULE
*****
 47 51 0 0 0
SMALL
GASTEIGER

@<TRIPOS>ATOM
      1 C          -7.6461    2.1373    0.0366 C.3     1  UNL1       -0.0397
      2 C          -6.3889    1.3225    0.1373 C.ar    1  UNL1       -0.0486
      3 C          -6.4199    0.0385    0.7249 C.ar    1  UNL1       -0.0582
      4 C          -5.2568   -0.7368    0.8628 C.ar    1  UNL1       -0.0519
      5 C          -4.0466   -0.2237    0.4201 C.ar    1  UNL1        0.0092
      6 C          -4.0459    1.0625   -0.1479 C.ar    1  UNL1        0.1016
      7 C          -5.1714    1.8529   -0.2989 C.ar    1  UNL1       -0.0329
      8 C          -2.7177   -0.8378    0.4590 C.ar    1  UNL1        0.0092
      9 C          -2.3480   -2.0817    0.9435 C.ar    1  UNL1       -0.0515
     10 C          -0.9969   -2.4706    0.8763 C.ar    1  UNL1       -0.0519
     11 C           0.0107   -1.6365    0.3245 C.ar    1  UNL1        0.0022
     12 C           1.4274   -2.0569    0.2562 C.ar    1  UNL1        0.0718
     13 C           1.8268   -3.3845    0.1127 C.ar    1  UNL1       -0.0357
     14 C           3.1847   -3.6846    0.0472 C.ar    1  UNL1       -0.0577
     15 C           4.1138   -2.6538    0.1192 C.ar    1  UNL1       -0.0342
     16 C           3.6577   -1.3450    0.2525 C.ar    1  UNL1        0.0898
     17 C           4.5872   -0.2057    0.3283 C.ar    1  UNL1        0.0894
     18 N           4.4587    0.7443   -0.6359 N.ar    1  UNL1       -0.2503
     19 C           5.2919    1.8100   -0.6043 C.ar    1  UNL1        0.0390
     20 C           5.1121    2.8519   -1.6678 C.3     1  UNL1       -0.0223
     21 C           6.2819    1.9582    0.3611 C.ar    1  UNL1       -0.0406
     22 C           6.4153    0.9788    1.3386 C.ar    1  UNL1       -0.0580
     23 C           5.5584   -0.1176    1.3252 C.ar    1  UNL1       -0.0342
     24 N           2.3330   -1.0511    0.3290 N.ar    1  UNL1       -0.2452
     25 C          -0.3748   -0.3722   -0.1541 C.ar    1  UNL1       -0.0267
     26 C          -1.7105   -0.0176   -0.0747 C.ar    1  UNL1        0.1019
     27 S          -2.4075    1.5019   -0.6225 S.O2    1  UNL1        0.0262
     28 O          -1.9569    2.5684    0.2448 O.2     1  UNL1       -0.1643
     29 O          -2.3527    1.5476   -2.0677 O.2     1  UNL1       -0.1643
     30 H          -8.5252    1.4908   -0.0557 H       1  UNL1        0.0278
     31 H          -7.6225    2.7813   -0.8490 H       1  UNL1        0.0278
     32 H          -7.7588    2.7622    0.9278 H       1  UNL1        0.0278
     33 H          -7.3657   -0.3679    1.0817 H       1  UNL1        0.0620
     34 H          -5.3224   -1.7212    1.3160 H       1  UNL1        0.0624
     35 H          -5.1006    2.8428   -0.7394 H       1  UNL1        0.0639
     36 H          -3.0773   -2.7588    1.3784 H       1  UNL1        0.0624
     37 H          -0.7324   -3.4442    1.2863 H       1  UNL1        0.0624
     38 H           1.1009   -4.1856    0.0268 H       1  UNL1        0.0639
     39 H           3.5141   -4.7126   -0.0745 H       1  UNL1        0.0619
     40 H           5.1754   -2.8678    0.0487 H       1  UNL1        0.0639
     41 H           4.9028    3.8248   -1.2117 H       1  UNL1        0.0292
     42 H           6.0171    2.9274   -2.2792 H       1  UNL1        0.0292
     43 H           4.2746    2.5979   -2.3262 H       1  UNL1        0.0292
     44 H           6.9346    2.8253    0.3588 H       1  UNL1        0.0635
     45 H           7.1732    1.0736    2.1110 H       1  UNL1        0.0619
     46 H           5.6387   -0.8817    2.0919 H       1  UNL1        0.0639
     47 H           0.3545    0.3152   -0.5785 H       1  UNL1        0.0643
@<TRIPOS>BOND
     1     1     2    1
     2     2     3   ar
     3     3     4   ar
     4     4     5   ar
     5     5     6   ar
     6     6     7   ar
     7     5     8    1
     8     8     9   ar
     9     9    10   ar
    10    10    11   ar
    11    11    12    1
    12    12    13   ar
    13    13    14   ar
    14    14    15   ar
    15    15    16   ar
    16    16    17    1
    17    17    18   ar
    18    18    19   ar
    19    19    20    1
    20    19    21   ar
    21    21    22   ar
    22    22    23   ar
    23    16    24   ar
    24    11    25   ar
    25    25    26   ar
    26    26    27    1
    27    27    28    2
    28    27    29    2
    29     7     2   ar
    30    27     6    1
    31    26     8   ar
    32    24    12   ar
    33    23    17   ar
    34     1    30    1
    35     1    31    1
    36     1    32    1
    37     3    33    1
    38     4    34    1
    39     7    35    1
    40     9    36    1
    41    10    37    1
    42    13    38    1
    43    14    39    1
    44    15    40    1
    45    20    41    1
    46    20    42    1
    47    20    43    1
    48    21    44    1
    49    22    45    1
    50    23    46    1
    51    25    47    1
