@<TRIPOS>MOLECULE
*****
 49 54 0 0 0
SMALL
GASTEIGER

@<TRIPOS>ATOM
      1 C          -9.0487   -0.3275   -0.5295 C.3     1  UNL1       -0.0397
      2 C          -7.5949   -0.2485   -0.1626 C.ar    1  UNL1       -0.0486
      3 C          -7.2106    0.2406    1.1055 C.ar    1  UNL1       -0.0582
      4 C          -5.8597    0.3582    1.4713 C.ar    1  UNL1       -0.0519
      5 C          -4.8793   -0.0058    0.5604 C.ar    1  UNL1        0.0092
      6 C          -5.2932   -0.4766   -0.6987 C.ar    1  UNL1        0.1016
      7 C          -6.6134   -0.6045   -1.0920 C.ar    1  UNL1       -0.0329
      8 C          -3.4230    0.0319    0.7128 C.ar    1  UNL1        0.0092
      9 C          -2.6722    0.4309    1.8069 C.ar    1  UNL1       -0.0516
     10 C          -1.2694    0.3803    1.7280 C.ar    1  UNL1       -0.0533
     11 C          -0.5931   -0.0644    0.5643 C.ar    1  UNL1       -0.0160
     12 C           0.8780   -0.1049    0.5207 C.ar    1  UNL1       -0.0171
     13 C           1.5835    0.5608   -0.4939 C.ar    1  UNL1       -0.0426
     14 C           2.9642    0.4845   -0.4789 C.ar    1  UNL1        0.0306
     15 C           3.6906   -0.2221    0.4916 C.ar    1  UNL1       -0.0064
     16 C           3.0124   -0.8848    1.4961 C.ar    1  UNL1       -0.0528
     17 C           1.6095   -0.8215    1.5046 C.ar    1  UNL1       -0.0534
     18 C           5.1050   -0.0972    0.2112 C.ar    1  UNL1       -0.0064
     19 C           5.2784    0.6925   -0.9369 C.ar    1  UNL1        0.0302
     20 C           6.5157    0.9997   -1.4700 C.ar    1  UNL1       -0.0474
     21 C           7.6439    0.4961   -0.8110 C.ar    1  UNL1       -0.0497
     22 C           7.4837   -0.3123    0.3391 C.ar    1  UNL1       -0.0582
     23 C           6.2147   -0.6087    0.8587 C.ar    1  UNL1       -0.0531
     24 C           9.0172    0.7629   -1.3566 C.3     1  UNL1       -0.0397
     25 C           3.9364    1.0887   -1.4149 C.2     1  UNL1        0.1943
     26 O           3.6815    1.7741   -2.3820 O.2     1  UNL1       -0.2866
     27 C          -1.3545   -0.4643   -0.5420 C.ar    1  UNL1       -0.0281
     28 C          -2.7333   -0.4049   -0.4310 C.ar    1  UNL1        0.1019
     29 S          -3.8848   -0.8640   -1.6797 S.O2    1  UNL1        0.0262
     30 O          -3.7972    0.0923   -2.7614 O.2     1  UNL1       -0.1643
     31 O          -3.8243   -2.2988   -1.8549 O.2     1  UNL1       -0.1643
     32 H          -9.2235   -1.1175   -1.2674 H       1  UNL1        0.0278
     33 H          -9.3807    0.6273   -0.9485 H       1  UNL1        0.0278
     34 H          -9.6594   -0.5622    0.3485 H       1  UNL1        0.0278
     35 H          -7.9755    0.5359    1.8230 H       1  UNL1        0.0620
     36 H          -5.6051    0.7353    2.4573 H       1  UNL1        0.0624
     37 H          -6.8659   -0.9673   -2.0835 H       1  UNL1        0.0639
     38 H          -3.1434    0.7831    2.7197 H       1  UNL1        0.0624
     39 H          -0.6915    0.7082    2.5921 H       1  UNL1        0.0624
     40 H           1.0794    1.1312   -1.2687 H       1  UNL1        0.0631
     41 H           3.5381   -1.4457    2.2620 H       1  UNL1        0.0624
     42 H           1.0729   -1.3544    2.2895 H       1  UNL1        0.0624
     43 H           6.5928    1.6088   -2.3651 H       1  UNL1        0.0627
     44 H           8.3631   -0.7178    0.8382 H       1  UNL1        0.0620
     45 H           6.1195   -1.2282    1.7445 H       1  UNL1        0.0624
     46 H           9.0473    1.7185   -1.8904 H       1  UNL1        0.0278
     47 H           9.3071   -0.0364   -2.0455 H       1  UNL1        0.0278
     48 H           9.7530    0.8194   -0.5475 H       1  UNL1        0.0278
     49 H          -0.8911   -0.8209   -1.4575 H       1  UNL1        0.0643
@<TRIPOS>BOND
     1     1     2    1
     2     2     3   ar
     3     3     4   ar
     4     4     5   ar
     5     5     6   ar
     6     6     7   ar
     7     5     8    1
     8     8     9   ar
     9     9    10   ar
    10    10    11   ar
    11    11    12    1
    12    12    13   ar
    13    13    14   ar
    14    14    15   ar
    15    15    16   ar
    16    16    17   ar
    17    15    18    1
    18    18    19   ar
    19    19    20   ar
    20    20    21   ar
    21    21    22   ar
    22    22    23   ar
    23    21    24    1
    24    19    25    1
    25    25    26    2
    26    11    27   ar
    27    27    28   ar
    28    28    29    1
    29    29    30    2
    30    29    31    2
    31     7     2   ar
    32    29     6    1
    33    28     8   ar
    34    17    12   ar
    35    25    14    1
    36    23    18   ar
    37     1    32    1
    38     1    33    1
    39     1    34    1
    40     3    35    1
    41     4    36    1
    42     7    37    1
    43     9    38    1
    44    10    39    1
    45    13    40    1
    46    16    41    1
    47    17    42    1
    48    20    43    1
    49    22    44    1
    50    23    45    1
    51    24    46    1
    52    24    47    1
    53    24    48    1
    54    27    49    1
