@<TRIPOS>MOLECULE
*****
 49 54 0 0 0
SMALL
GASTEIGER

@<TRIPOS>ATOM
      1 C          -8.3480    1.4736    1.4426 C.3     1  UNL1       -0.0397
      2 C          -7.0210    0.9238    1.0053 C.ar    1  UNL1       -0.0486
      3 C          -6.8794   -0.4564    0.7404 C.ar    1  UNL1       -0.0582
      4 C          -5.6465   -1.0107    0.3595 C.ar    1  UNL1       -0.0519
      5 C          -4.5388   -0.1831    0.2506 C.ar    1  UNL1        0.0092
      6 C          -4.7086    1.1840    0.5339 C.ar    1  UNL1        0.1016
      7 C          -5.9070    1.7628    0.9118 C.ar    1  UNL1       -0.0329
      8 C          -3.1655   -0.5295   -0.1228 C.ar    1  UNL1        0.0092
      9 C          -2.6414   -1.7663   -0.4629 C.ar    1  UNL1       -0.0516
     10 C          -1.2770   -1.8640   -0.7871 C.ar    1  UNL1       -0.0533
     11 C          -0.4151   -0.7387   -0.7778 C.ar    1  UNL1       -0.0160
     12 C           1.0100   -0.8812   -1.1197 C.ar    1  UNL1       -0.0171
     13 C           2.0080   -0.4408   -0.2282 C.ar    1  UNL1       -0.0443
     14 C           3.3744   -0.5770   -0.5563 C.ar    1  UNL1        0.0080
     15 C           3.7098   -1.1539   -1.7785 C.ar    1  UNL1        0.0475
     16 C           2.7511   -1.6026   -2.6910 C.ar    1  UNL1       -0.0372
     17 C           1.4036   -1.4554   -2.3382 C.ar    1  UNL1       -0.0521
     18 N           5.0828   -1.1677   -1.8540 N.ar    1  UNL1       -0.3541
     19 C           5.6448   -0.6246   -0.7228 C.ar    1  UNL1        0.0475
     20 C           4.5960   -0.2424    0.1109 C.ar    1  UNL1        0.0077
     21 C           4.9049    0.3511    1.3535 C.ar    1  UNL1       -0.0491
     22 C           6.2461    0.5550    1.7198 C.ar    1  UNL1       -0.0497
     23 C           6.5763    1.1567    3.0546 C.3     1  UNL1       -0.0397
     24 C           7.2686    0.1431    0.8590 C.ar    1  UNL1       -0.0569
     25 C           6.9889   -0.4478   -0.3781 C.ar    1  UNL1       -0.0375
     26 C          -0.9476    0.5108   -0.4334 C.ar    1  UNL1       -0.0281
     27 C          -2.2945    0.5735   -0.1205 C.ar    1  UNL1        0.1019
     28 S          -3.1753    2.0252    0.3390 S.O2    1  UNL1        0.0262
     29 O          -2.7134    2.4514    1.6421 O.2     1  UNL1       -0.1643
     30 O          -3.2688    2.8934   -0.8143 O.2     1  UNL1       -0.1643
     31 H          -8.4456    1.3936    2.5296 H       1  UNL1        0.0278
     32 H          -8.4498    2.5252    1.1547 H       1  UNL1        0.0278
     33 H          -9.1706    0.9264    0.9704 H       1  UNL1        0.0278
     34 H          -7.7436   -1.1136    0.8314 H       1  UNL1        0.0620
     35 H          -5.5792   -2.0760    0.1603 H       1  UNL1        0.0624
     36 H          -5.9690    2.8257    1.1239 H       1  UNL1        0.0639
     37 H          -3.2592   -2.6591   -0.4805 H       1  UNL1        0.0624
     38 H          -0.8734   -2.8445   -1.0402 H       1  UNL1        0.0624
     39 H           1.7360   -0.0002    0.7275 H       1  UNL1        0.0630
     40 H           3.0313   -2.0454   -3.6412 H       1  UNL1        0.0638
     41 H           0.6473   -1.7895   -3.0472 H       1  UNL1        0.0624
     42 H           5.6092   -1.5299   -2.6349 H       1  UNL1        0.1659
     43 H           4.1008    0.6498    2.0204 H       1  UNL1        0.0627
     44 H           7.5197    1.7111    3.0108 H       1  UNL1        0.0278
     45 H           6.6632    0.3685    3.8087 H       1  UNL1        0.0278
     46 H           5.7999    1.8627    3.3677 H       1  UNL1        0.0278
     47 H           8.3090    0.2824    1.1476 H       1  UNL1        0.0621
     48 H           7.7918   -0.7573   -1.0390 H       1  UNL1        0.0638
     49 H          -0.3350    1.4077   -0.4188 H       1  UNL1        0.0643
@<TRIPOS>BOND
     1     1     2    1
     2     2     3   ar
     3     3     4   ar
     4     4     5   ar
     5     5     6   ar
     6     6     7   ar
     7     5     8    1
     8     8     9   ar
     9     9    10   ar
    10    10    11   ar
    11    11    12    1
    12    12    13   ar
    13    13    14   ar
    14    14    15   ar
    15    15    16   ar
    16    16    17   ar
    17    15    18   ar
    18    18    19   ar
    19    19    20   ar
    20    20    21   ar
    21    21    22   ar
    22    22    23    1
    23    22    24   ar
    24    24    25   ar
    25    11    26   ar
    26    26    27   ar
    27    27    28    1
    28    28    29    2
    29    28    30    2
    30     7     2   ar
    31    28     6    1
    32    27     8   ar
    33    17    12   ar
    34    20    14   ar
    35    25    19   ar
    36     1    31    1
    37     1    32    1
    38     1    33    1
    39     3    34    1
    40     4    35    1
    41     7    36    1
    42     9    37    1
    43    10    38    1
    44    13    39    1
    45    16    40    1
    46    17    41    1
    47    18    42    1
    48    21    43    1
    49    23    44    1
    50    23    45    1
    51    23    46    1
    52    24    47    1
    53    25    48    1
    54    26    49    1
