@<TRIPOS>MOLECULE
*****
 45 50 0 0 0
SMALL
GASTEIGER

@<TRIPOS>ATOM
      1 C          -8.7439    0.1553    0.2935 C.3     1  UNL1       -0.0397
      2 C          -7.2762   -0.1179    0.1321 C.ar    1  UNL1       -0.0486
      3 C          -6.8382   -1.2173   -0.6389 C.ar    1  UNL1       -0.0582
      4 C          -5.4729   -1.4817   -0.8359 C.ar    1  UNL1       -0.0519
      5 C          -4.5324   -0.6358   -0.2671 C.ar    1  UNL1        0.0092
      6 C          -4.9998    0.4576    0.4843 C.ar    1  UNL1        0.1016
      7 C          -6.3355    0.7472    0.6982 C.ar    1  UNL1       -0.0329
      8 C          -3.0710   -0.7049   -0.3392 C.ar    1  UNL1        0.0092
      9 C          -2.2740   -1.6336   -0.9896 C.ar    1  UNL1       -0.0515
     10 C          -0.8759   -1.4974   -0.9279 C.ar    1  UNL1       -0.0528
     11 C          -0.2570   -0.4406   -0.2181 C.ar    1  UNL1       -0.0094
     12 C           1.2044   -0.3035   -0.1783 C.ar    1  UNL1        0.0205
     13 C           1.9670    0.8317   -0.3701 C.ar    1  UNL1       -0.0392
     14 C           3.3772    0.6018   -0.2400 C.ar    1  UNL1       -0.0091
     15 C           4.4673    1.4781   -0.3671 C.ar    1  UNL1       -0.0392
     16 C           5.7798    1.0305   -0.1931 C.ar    1  UNL1        0.0202
     17 C           6.0464   -0.3013    0.1134 C.ar    1  UNL1       -0.0095
     18 C           4.9557   -1.1772    0.2400 C.ar    1  UNL1       -0.0392
     19 C           3.6434   -0.7295    0.0646 C.ar    1  UNL1        0.0205
     20 S           2.1968   -1.6501    0.1801 S.2     1  UNL1       -0.0882
     21 C           7.4566   -0.5308    0.2479 C.ar    1  UNL1       -0.0440
     22 C           8.2109    0.6039    0.0445 C.ar    1  UNL1       -0.0121
     23 S           7.2274    1.9524   -0.3100 S.2     1  UNL1       -0.0934
     24 C           9.6918    0.7559    0.0980 C.3     1  UNL1       -0.0334
     25 C          -1.0592    0.5008    0.4358 C.ar    1  UNL1       -0.0276
     26 C          -2.4311    0.3361    0.3557 C.ar    1  UNL1        0.1019
     27 S          -3.6350    1.3872    1.0910 S.O2    1  UNL1        0.0262
     28 O          -3.6032    2.6638    0.4109 O.2     1  UNL1       -0.1643
     29 O          -3.5671    1.2296    2.5272 O.2     1  UNL1       -0.1643
     30 H          -9.0822    0.8487   -0.4828 H       1  UNL1        0.0278
     31 H          -9.3260   -0.7694    0.2197 H       1  UNL1        0.0278
     32 H          -8.9511    0.5928    1.2758 H       1  UNL1        0.0278
     33 H          -7.5712   -1.8813   -1.0958 H       1  UNL1        0.0620
     34 H          -5.1763   -2.3395   -1.4321 H       1  UNL1        0.0624
     35 H          -6.6311    1.6132    1.2828 H       1  UNL1        0.0639
     36 H          -2.7052   -2.4595   -1.5476 H       1  UNL1        0.0624
     37 H          -0.2641   -2.2278   -1.4565 H       1  UNL1        0.0624
     38 H           1.5389    1.7993   -0.6051 H       1  UNL1        0.0635
     39 H           4.2846    2.5240   -0.6047 H       1  UNL1        0.0635
     40 H           5.1393   -2.2221    0.4798 H       1  UNL1        0.0635
     41 H           7.8899   -1.4950    0.4851 H       1  UNL1        0.0632
     42 H          10.1700   -0.1788    0.4080 H       1  UNL1        0.0283
     43 H          10.0885    1.0254   -0.8863 H       1  UNL1        0.0283
     44 H           9.9795    1.5315    0.8151 H       1  UNL1        0.0283
     45 H          -0.6355    1.3282    0.9968 H       1  UNL1        0.0643
@<TRIPOS>BOND
     1     1     2    1
     2     2     3   ar
     3     3     4   ar
     4     4     5   ar
     5     5     6   ar
     6     6     7   ar
     7     5     8    1
     8     8     9   ar
     9     9    10   ar
    10    10    11   ar
    11    11    12    1
    12    12    13   ar
    13    13    14   ar
    14    14    15   ar
    15    15    16   ar
    16    16    17   ar
    17    17    18   ar
    18    18    19   ar
    19    19    20   ar
    20    17    21   ar
    21    21    22   ar
    22    22    23   ar
    23    22    24    1
    24    11    25   ar
    25    25    26   ar
    26    26    27    1
    27    27    28    2
    28    27    29    2
    29     7     2   ar
    30    27     6    1
    31    26     8   ar
    32    20    12   ar
    33    19    14   ar
    34    23    16   ar
    35     1    30    1
    36     1    31    1
    37     1    32    1
    38     3    33    1
    39     4    34    1
    40     7    35    1
    41     9    36    1
    42    10    37    1
    43    13    38    1
    44    15    39    1
    45    18    40    1
    46    21    41    1
    47    24    42    1
    48    24    43    1
    49    24    44    1
    50    25    45    1
