@<TRIPOS>MOLECULE
*****
 41 44 0 0 0
SMALL
GASTEIGER

@<TRIPOS>ATOM
      1 C           7.2541   -0.2811   -0.3705 C.3     1  UNL1       -0.0397
      2 C           5.7856   -0.1658   -0.0798 C.ar    1  UNL1       -0.0486
      3 C           5.3460    0.4171    1.1293 C.ar    1  UNL1       -0.0582
      4 C           3.9804    0.5683    1.4204 C.ar    1  UNL1       -0.0519
      5 C           3.0409    0.1437    0.4925 C.ar    1  UNL1        0.0092
      6 C           3.5098   -0.4199   -0.7076 C.ar    1  UNL1        0.1016
      7 C           4.8461   -0.5837   -1.0266 C.ar    1  UNL1       -0.0329
      8 C           1.5793    0.1996    0.5722 C.ar    1  UNL1        0.0092
      9 C           0.7815    0.6810    1.5991 C.ar    1  UNL1       -0.0515
     10 C          -0.6166    0.6347    1.4585 C.ar    1  UNL1       -0.0518
     11 C          -1.2336    0.1169    0.2940 C.ar    1  UNL1        0.0036
     12 C          -2.7084    0.0584    0.1583 C.ar    1  UNL1        0.0876
     13 C          -3.4474    1.1439    0.4521 C.ar    1  UNL1        0.0336
     14 N          -4.8218    1.1325    0.3284 N.ar    1  UNL1       -0.3148
     15 C          -5.5828    2.3227    0.6575 C.3     1  UNL1        0.0148
     16 C          -5.4724   -0.0127   -0.1120 C.ar    1  UNL1        0.2722
     17 C          -4.5397   -1.1777   -0.4379 C.ar    1  UNL1        0.1031
     18 C          -5.1895   -2.4362   -0.9363 C.3     1  UNL1       -0.0171
     19 N          -3.2455   -1.1214   -0.3054 N.ar    1  UNL1       -0.2450
     20 O          -6.6795   -0.1483   -0.2533 O.2     1  UNL1       -0.2658
     21 C          -0.4301   -0.3837   -0.7372 C.ar    1  UNL1       -0.0266
     22 C           0.9413   -0.3220   -0.5669 C.ar    1  UNL1        0.1019
     23 S           2.1460   -0.8722   -1.7245 S.O2    1  UNL1        0.0262
     24 O           2.1178    0.0088   -2.8720 O.2     1  UNL1       -0.1643
     25 O           2.0914   -2.3153   -1.8047 O.2     1  UNL1       -0.1643
     26 H           7.8245   -0.4246    0.5532 H       1  UNL1        0.0278
     27 H           7.4578   -1.1427   -1.0152 H       1  UNL1        0.0278
     28 H           7.6086    0.6265   -0.8689 H       1  UNL1        0.0278
     29 H           6.0785    0.7592    1.8597 H       1  UNL1        0.0620
     30 H           3.6828    1.0165    2.3637 H       1  UNL1        0.0624
     31 H           5.1420   -1.0210   -1.9753 H       1  UNL1        0.0639
     32 H           1.2141    1.0836    2.5103 H       1  UNL1        0.0624
     33 H          -1.2296    0.9933    2.2842 H       1  UNL1        0.0624
     34 H          -3.0023    2.0754    0.7894 H       1  UNL1        0.0832
     35 H          -6.6551    2.1683    0.5097 H       1  UNL1        0.0457
     36 H          -5.2538    3.1463    0.0160 H       1  UNL1        0.0457
     37 H          -5.4053    2.5812    1.7061 H       1  UNL1        0.0457
     38 H          -4.4342   -3.1991   -1.1452 H       1  UNL1        0.0294
     39 H          -5.8777   -2.8182   -0.1773 H       1  UNL1        0.0294
     40 H          -5.7417   -2.2241   -1.8558 H       1  UNL1        0.0294
     41 H          -0.8615   -0.8080   -1.6393 H       1  UNL1        0.0643
@<TRIPOS>BOND
     1     1     2    1
     2     2     3   ar
     3     3     4   ar
     4     4     5   ar
     5     5     6   ar
     6     6     7   ar
     7     5     8    1
     8     8     9   ar
     9     9    10   ar
    10    10    11   ar
    11    11    12    1
    12    12    13   ar
    13    13    14   ar
    14    14    15    1
    15    14    16   ar
    16    16    17   ar
    17    17    18    1
    18    17    19   ar
    19    16    20    2
    20    11    21   ar
    21    21    22   ar
    22    22    23    1
    23    23    24    2
    24    23    25    2
    25     7     2   ar
    26    23     6    1
    27    22     8   ar
    28    19    12   ar
    29     1    26    1
    30     1    27    1
    31     1    28    1
    32     3    29    1
    33     4    30    1
    34     7    31    1
    35     9    32    1
    36    10    33    1
    37    13    34    1
    38    15    35    1
    39    15    36    1
    40    15    37    1
    41    18    38    1
    42    18    39    1
    43    18    40    1
    44    21    41    1
