@<TRIPOS>MOLECULE
*****
 44 50 0 0 0
SMALL
GASTEIGER

@<TRIPOS>ATOM
      1 SI          5.2935    2.9665    0.2916 Si      1  UNL1        0.0000
      2 C           6.5041    1.5589    0.0934 C.2     1  UNL1        0.0000
      3 C           5.8549    0.3861   -0.0276 C.ar    1  UNL1        0.0000
      4 C           6.5041   -0.8942   -0.1959 C.ar    1  UNL1        0.0000
      5 C           5.7376   -1.9918   -0.3049 C.ar    1  UNL1        0.0000
      6 C           4.2779   -1.9288   -0.2586 C.ar    1  UNL1        0.0000
      7 C           3.5697   -0.7790   -0.1042 C.ar    1  UNL1        0.0000
      8 C           2.1257   -0.8600   -0.0753 C.ar    1  UNL1        0.0000
      9 C           1.2661   -1.9577   -0.1817 C.ar    1  UNL1        0.0000
     10 C          -0.0749   -1.5027   -0.0924 C.ar    1  UNL1        0.0000
     11 C          -1.3428   -2.0973   -0.1287 C.ar    1  UNL1        0.0000
     12 C          -2.4738   -1.2459    0.0018 C.ar    1  UNL1        0.0000
     13 C          -3.8148   -1.6725   -0.0127 C.ar    1  UNL1        0.0000
     14 C          -4.3049   -2.9462   -0.1498 C.ar    1  UNL1        0.0000
     15 O          -5.6714   -2.9212   -0.1104 O.2     1  UNL1        0.0000
     16 C          -6.0519   -1.6184    0.0533 C.ar    1  UNL1        0.0000
     17 C          -4.9404   -0.8181    0.1180 C.ar    1  UNL1        0.0000
     18 C          -4.8748    0.5793    0.2810 C.ar    1  UNL1        0.0000
     19 C          -5.9741    1.4538    0.4133 C.ar    1  UNL1        0.0000
     20 C          -5.7292    2.8064    0.5662 C.ar    1  UNL1        0.0000
     21 C          -4.4123    3.2229    0.5802 C.ar    1  UNL1        0.0000
     22 N          -3.3439    2.3970    0.4544 N.ar    1  UNL1        0.0000
     23 C          -3.5289    1.0669    0.3025 C.ar    1  UNL1        0.0000
     24 C          -2.3833    0.1850    0.1681 C.ar    1  UNL1        0.0000
     25 C          -1.0817    0.7226    0.1967 C.ar    1  UNL1        0.0000
     26 C           0.0128   -0.1354    0.0664 C.ar    1  UNL1        0.0000
     27 O           1.3120    0.2494    0.0772 O.2     1  UNL1        0.0000
     28 C           4.3692    0.4625    0.0209 C.ar    1  UNL1        0.0000
     29 C           3.9076    1.7211    0.1816 C.2     1  UNL1        0.0000
     30 H           5.3901    3.6044    1.6270 H       1  UNL1        0.0000
     31 H           5.3239    3.8979   -0.8622 H       1  UNL1        0.0000
     32 H           7.5692    1.7244    0.0845 H       1  UNL1        0.0000
     33 H           7.5858   -0.9507   -0.2314 H       1  UNL1        0.0000
     34 H           6.1924   -2.9695   -0.4323 H       1  UNL1        0.0000
     35 H           3.7961   -2.8956   -0.3598 H       1  UNL1        0.0000
     36 H           1.5686   -2.9865   -0.3111 H       1  UNL1        0.0000
     37 H          -1.4471   -3.1694   -0.2523 H       1  UNL1        0.0000
     38 H          -3.8663   -3.9257   -0.2769 H       1  UNL1        0.0000
     39 H          -7.1188   -1.4529    0.1013 H       1  UNL1        0.0000
     40 H          -6.9943    1.0849    0.3971 H       1  UNL1        0.0000
     41 H          -6.5390    3.5189    0.6718 H       1  UNL1        0.0000
     42 H          -4.1628    4.2743    0.6975 H       1  UNL1        0.0000
     43 H          -0.9132    1.7889    0.3179 H       1  UNL1        0.0000
     44 H           2.8833    2.0477    0.2474 H       1  UNL1        0.0000
@<TRIPOS>BOND
     1     1     2    1
     2     2     3    2
     3     3     4   ar
     4     4     5   ar
     5     5     6   ar
     6     6     7   ar
     7     7     8    1
     8     8     9   ar
     9     9    10   ar
    10    10    11   ar
    11    11    12   ar
    12    12    13   ar
    13    13    14   ar
    14    14    15   ar
    15    15    16   ar
    16    16    17   ar
    17    17    18   ar
    18    18    19   ar
    19    19    20   ar
    20    20    21   ar
    21    21    22   ar
    22    22    23   ar
    23    23    24   ar
    24    24    25   ar
    25    25    26   ar
    26    26    27   ar
    27     7    28   ar
    28    28    29    2
    29    29     1    1
    30    28     3   ar
    31    27     8   ar
    32    26    10   ar
    33    24    12   ar
    34    17    13   ar
    35    23    18   ar
    36     1    30    1
    37     1    31    1
    38     2    32    1
    39     4    33    1
    40     5    34    1
    41     6    35    1
    42     9    36    1
    43    11    37    1
    44    14    38    1
    45    16    39    1
    46    19    40    1
    47    20    41    1
    48    21    42    1
    49    25    43    1
    50    29    44    1
