@<TRIPOS>MOLECULE
*****
 39 42 0 0 0
SMALL
GASTEIGER

@<TRIPOS>ATOM
      1 C           6.8622    0.5847   -0.1406 C.3     1  UNL1       -0.0397
      2 C           5.4003    0.4946    0.1900 C.ar    1  UNL1       -0.0486
      3 C           4.9901    0.1792    1.5042 C.ar    1  UNL1       -0.0582
      4 C           3.6325    0.0561    1.8426 C.ar    1  UNL1       -0.0519
      5 C           2.6721    0.2394    0.8589 C.ar    1  UNL1        0.0092
      6 C           3.1123    0.5392   -0.4427 C.ar    1  UNL1        0.1016
      7 C           4.4398    0.6671   -0.8107 C.ar    1  UNL1       -0.0329
      8 C           1.2139    0.1604    0.9716 C.ar    1  UNL1        0.0092
      9 C           0.4403   -0.1116    2.0886 C.ar    1  UNL1       -0.0516
     10 C          -0.9596   -0.1379    1.9607 C.ar    1  UNL1       -0.0532
     11 C          -1.6112    0.1051    0.7247 C.ar    1  UNL1       -0.0111
     12 C          -3.0814    0.0764    0.6326 C.ar    1  UNL1        0.0419
     13 C          -3.8607    0.8970    1.4471 C.ar    1  UNL1        0.0388
     14 N          -5.2132    0.9407    1.4394 N.ar    1  UNL1       -0.2622
     15 C          -5.8384    0.1270    0.5637 C.ar    1  UNL1        0.0340
     16 C          -5.1874   -0.7378   -0.3095 C.ar    1  UNL1        0.0096
     17 C          -5.9857   -1.5978   -1.2389 C.3     1  UNL1       -0.0348
     18 C          -3.7874   -0.7517   -0.2568 C.ar    1  UNL1        0.1303
     19 O          -3.0592   -1.5879   -1.0660 O.3     1  UNL1       -0.5058
     20 C          -0.8249    0.3818   -0.4020 C.ar    1  UNL1       -0.0280
     21 C           0.5497    0.3979   -0.2438 C.ar    1  UNL1        0.1019
     22 S           1.7256    0.7167   -1.5121 S.O2    1  UNL1        0.0262
     23 O           1.7190   -0.3901   -2.4439 O.2     1  UNL1       -0.1643
     24 O           1.6204    2.1063   -1.9012 O.2     1  UNL1       -0.1643
     25 H           7.0319    1.2653   -0.9815 H       1  UNL1        0.0278
     26 H           7.2474   -0.4052   -0.4035 H       1  UNL1        0.0278
     27 H           7.4305    0.9728    0.7112 H       1  UNL1        0.0278
     28 H           5.7394    0.0265    2.2802 H       1  UNL1        0.0620
     29 H           3.3572   -0.1834    2.8653 H       1  UNL1        0.0624
     30 H           4.7132    0.8928   -1.8368 H       1  UNL1        0.0639
     31 H           0.8917   -0.3091    3.0564 H       1  UNL1        0.0624
     32 H          -1.5538   -0.3682    2.8453 H       1  UNL1        0.0624
     33 H          -3.3993    1.5806    2.1563 H       1  UNL1        0.0837
     34 H          -6.9235    0.1958    0.5875 H       1  UNL1        0.0833
     35 H          -5.8145   -2.6561   -1.0174 H       1  UNL1        0.0279
     36 H          -5.7088   -1.3934   -2.2781 H       1  UNL1        0.0279
     37 H          -7.0602   -1.4089   -1.1423 H       1  UNL1        0.0279
     38 H          -3.6483   -2.1376   -1.6044 H       1  UNL1        0.2922
     39 H          -1.2717    0.5733   -1.3734 H       1  UNL1        0.0643
@<TRIPOS>BOND
     1     1     2    1
     2     2     3   ar
     3     3     4   ar
     4     4     5   ar
     5     5     6   ar
     6     6     7   ar
     7     5     8    1
     8     8     9   ar
     9     9    10   ar
    10    10    11   ar
    11    11    12    1
    12    12    13   ar
    13    13    14   ar
    14    14    15   ar
    15    15    16   ar
    16    16    17    1
    17    16    18   ar
    18    18    19    1
    19    11    20   ar
    20    20    21   ar
    21    21    22    1
    22    22    23    2
    23    22    24    2
    24     7     2   ar
    25    22     6    1
    26    21     8   ar
    27    18    12   ar
    28     1    25    1
    29     1    26    1
    30     1    27    1
    31     3    28    1
    32     4    29    1
    33     7    30    1
    34     9    31    1
    35    10    32    1
    36    13    33    1
    37    15    34    1
    38    17    35    1
    39    17    36    1
    40    17    37    1
    41    19    38    1
    42    20    39    1
