@<TRIPOS>MOLECULE
*****
 38 41 0 0 0
SMALL
GASTEIGER

@<TRIPOS>ATOM
      1 C           6.7480   -0.6987    0.2920 C.3     1  UNL1       -0.0397
      2 C           5.3056   -0.2980    0.1772 C.ar    1  UNL1       -0.0486
      3 C           4.9634    1.0460   -0.0903 C.ar    1  UNL1       -0.0582
      4 C           3.6263    1.4511   -0.2343 C.ar    1  UNL1       -0.0519
      5 C           2.6182    0.5053   -0.1207 C.ar    1  UNL1        0.0092
      6 C           2.9913   -0.8267    0.1324 C.ar    1  UNL1        0.1016
      7 C           4.2969   -1.2602    0.2793 C.ar    1  UNL1       -0.0329
      8 C           1.1694    0.6871   -0.2340 C.ar    1  UNL1        0.0092
      9 C           0.4536    1.8484   -0.4737 C.ar    1  UNL1       -0.0515
     10 C          -0.9509    1.7863   -0.5440 C.ar    1  UNL1       -0.0519
     11 C          -1.6704    0.5731   -0.3818 C.ar    1  UNL1        0.0022
     12 C          -3.1462    0.5225   -0.4588 C.ar    1  UNL1        0.0713
     13 N          -3.7382   -0.4147    0.3254 N.ar    1  UNL1       -0.2519
     14 C          -5.0883   -0.5202    0.3086 C.ar    1  UNL1        0.0389
     15 C          -5.7056   -1.5632    1.1909 C.3     1  UNL1       -0.0223
     16 C          -5.8916    0.2894   -0.4838 C.ar    1  UNL1       -0.0406
     17 C          -5.2835    1.2412   -1.2919 C.ar    1  UNL1       -0.0581
     18 C          -3.8962    1.3604   -1.2823 C.ar    1  UNL1       -0.0357
     19 C          -0.9343   -0.5965   -0.1291 C.ar    1  UNL1       -0.0267
     20 C           0.4454   -0.5042   -0.0664 C.ar    1  UNL1        0.1019
     21 S           1.5534   -1.8387    0.2260 S.O2    1  UNL1        0.0262
     22 O           1.5376   -2.7159   -0.9245 O.2     1  UNL1       -0.1643
     23 O           1.3984   -2.2861    1.5929 O.2     1  UNL1       -0.1643
     24 H           6.8603   -1.5750    0.9391 H       1  UNL1        0.0278
     25 H           7.3422    0.1087    0.7324 H       1  UNL1        0.0278
     26 H           7.1495   -0.9363   -0.6978 H       1  UNL1        0.0278
     27 H           5.7506    1.7928   -0.1877 H       1  UNL1        0.0620
     28 H           3.4038    2.4948   -0.4345 H       1  UNL1        0.0624
     29 H           4.5174   -2.3065    0.4670 H       1  UNL1        0.0639
     30 H           0.9526    2.8044   -0.6014 H       1  UNL1        0.0624
     31 H          -1.4896    2.7184   -0.7093 H       1  UNL1        0.0624
     32 H          -4.9361   -2.1095    1.7457 H       1  UNL1        0.0292
     33 H          -6.3801   -1.0953    1.9147 H       1  UNL1        0.0292
     34 H          -6.2675   -2.2837    0.5884 H       1  UNL1        0.0292
     35 H          -6.9711    0.1803   -0.4779 H       1  UNL1        0.0635
     36 H          -5.8843    1.8832   -1.9298 H       1  UNL1        0.0619
     37 H          -3.4200    2.0895   -1.9286 H       1  UNL1        0.0639
     38 H          -1.4300   -1.5537    0.0134 H       1  UNL1        0.0643
@<TRIPOS>BOND
     1     1     2    1
     2     2     3   ar
     3     3     4   ar
     4     4     5   ar
     5     5     6   ar
     6     6     7   ar
     7     5     8    1
     8     8     9   ar
     9     9    10   ar
    10    10    11   ar
    11    11    12    1
    12    12    13   ar
    13    13    14   ar
    14    14    15    1
    15    14    16   ar
    16    16    17   ar
    17    17    18   ar
    18    11    19   ar
    19    19    20   ar
    20    20    21    1
    21    21    22    2
    22    21    23    2
    23     7     2   ar
    24    21     6    1
    25    20     8   ar
    26    18    12   ar
    27     1    24    1
    28     1    25    1
    29     1    26    1
    30     3    27    1
    31     4    28    1
    32     7    29    1
    33     9    30    1
    34    10    31    1
    35    15    32    1
    36    15    33    1
    37    15    34    1
    38    16    35    1
    39    17    36    1
    40    18    37    1
    41    19    38    1
