@<TRIPOS>MOLECULE
*****
 31 32 0 0 0
SMALL
GASTEIGER

@<TRIPOS>ATOM
      1 C           5.2559   -0.2910   -0.2904 C.3     1  UNL1       -0.0397
      2 C           3.7598   -0.2297   -0.2080 C.ar    1  UNL1       -0.0504
      3 C           3.0692   -0.9931    0.7379 C.ar    1  UNL1       -0.0583
      4 C           1.6761   -0.9118    0.8346 C.ar    1  UNL1       -0.0538
      5 C           0.9394   -0.0585   -0.0016 C.ar    1  UNL1       -0.0179
      6 C          -0.5267    0.0258    0.1024 C.ar    1  UNL1       -0.0174
      7 C          -1.1681    1.2603    0.2980 C.ar    1  UNL1       -0.0511
      8 C          -2.5635    1.3509    0.3991 C.ar    1  UNL1       -0.0496
      9 C          -3.2253    2.6862    0.5704 C.3     1  UNL1       -0.0397
     10 C          -3.3329    0.1882    0.2808 C.ar    1  UNL1       -0.0559
     11 C          -2.7220   -1.0577    0.1005 C.ar    1  UNL1       -0.0496
     12 C          -3.5534   -2.2966   -0.0545 C.3     1  UNL1       -0.0397
     13 C          -1.3250   -1.1260    0.0034 C.ar    1  UNL1       -0.0511
     14 C           1.6451    0.7144   -0.9368 C.ar    1  UNL1       -0.0538
     15 C           3.0380    0.6344   -1.0368 C.ar    1  UNL1       -0.0583
     16 H           5.5993   -0.0936   -1.3114 H       1  UNL1        0.0278
     17 H           5.6984    0.4508    0.3815 H       1  UNL1        0.0278
     18 H           5.6221   -1.2846   -0.0115 H       1  UNL1        0.0278
     19 H           3.6090   -1.6568    1.4094 H       1  UNL1        0.0620
     20 H           1.1658   -1.5136    1.5840 H       1  UNL1        0.0624
     21 H          -0.5688    2.1655    0.3822 H       1  UNL1        0.0626
     22 H          -4.1709    2.5872    1.1138 H       1  UNL1        0.0278
     23 H          -3.4248    3.1330   -0.4084 H       1  UNL1        0.0278
     24 H          -2.5897    3.3659    1.1476 H       1  UNL1        0.0278
     25 H          -4.4181    0.2533    0.3313 H       1  UNL1        0.0623
     26 H          -3.0206   -3.1744    0.3260 H       1  UNL1        0.0278
     27 H          -4.4873   -2.2140    0.5113 H       1  UNL1        0.0278
     28 H          -3.7922   -2.4571   -1.1103 H       1  UNL1        0.0278
     29 H          -0.8502   -2.0909   -0.1676 H       1  UNL1        0.0626
     30 H           1.1084    1.3833   -1.6066 H       1  UNL1        0.0624
     31 H           3.5528    1.2506   -1.7703 H       1  UNL1        0.0620
@<TRIPOS>BOND
     1     1     2    1
     2     2     3   ar
     3     3     4   ar
     4     4     5   ar
     5     5     6    1
     6     6     7   ar
     7     7     8   ar
     8     8     9    1
     9     8    10   ar
    10    10    11   ar
    11    11    12    1
    12    11    13   ar
    13     5    14   ar
    14    14    15   ar
    15    15     2   ar
    16    13     6   ar
    17     1    16    1
    18     1    17    1
    19     1    18    1
    20     3    19    1
    21     4    20    1
    22     7    21    1
    23     9    22    1
    24     9    23    1
    25     9    24    1
    26    10    25    1
    27    12    26    1
    28    12    27    1
    29    12    28    1
    30    13    29    1
    31    14    30    1
    32    15    31    1
