@<TRIPOS>MOLECULE
*****
 38 41 0 0 0
SMALL
GASTEIGER

@<TRIPOS>ATOM
      1 C           7.1873   -0.0968   -0.0616 C.3     1  UNL1       -0.0397
      2 C           5.6888   -0.1514   -0.0914 C.ar    1  UNL1       -0.0504
      3 C           4.9858   -0.8765    0.8748 C.ar    1  UNL1       -0.0583
      4 C           3.5873   -0.9030    0.8642 C.ar    1  UNL1       -0.0537
      5 C           2.8553   -0.1971   -0.1039 C.ar    1  UNL1       -0.0164
      6 C           1.3867   -0.2254   -0.1137 C.ar    1  UNL1        0.0008
      7 C           0.6209    0.9420   -0.1418 C.ar    1  UNL1       -0.0433
      8 C          -0.7834    0.8902   -0.1467 C.ar    1  UNL1        0.0031
      9 C          -1.5268    2.0738   -0.1712 C.ar    1  UNL1       -0.0519
     10 C          -2.9130    2.0236   -0.1752 C.ar    1  UNL1       -0.0519
     11 C          -1.4272   -0.3696   -0.1236 C.ar    1  UNL1        0.0968
     12 N          -0.6810   -1.5019   -0.0972 N.ar    1  UNL1       -0.2522
     13 C           0.6705   -1.4132   -0.0942 C.ar    1  UNL1        0.0360
     14 C          -2.8349   -0.4214   -0.1273 C.ar    1  UNL1        0.0968
     15 C          -3.5683    0.7891   -0.1548 C.ar    1  UNL1        0.0028
     16 C          -4.9708    0.7379   -0.1599 C.ar    1  UNL1       -0.0481
     17 C          -5.6329   -0.4863   -0.1494 C.ar    1  UNL1       -0.0318
     18 C          -4.8459   -1.6218   -0.1080 C.ar    1  UNL1        0.0313
     19 N          -3.4953   -1.6069   -0.1020 N.ar    1  UNL1       -0.2526
     20 C          -7.1243   -0.5716   -0.1186 C.3     1  UNL1       -0.0383
     21 C           3.5727    0.5403   -1.0594 C.ar    1  UNL1       -0.0537
     22 C           4.9712    0.5673   -1.0516 C.ar    1  UNL1       -0.0583
     23 H           7.6042   -1.0263    0.3402 H       1  UNL1        0.0278
     24 H           7.5189    0.7387    0.5625 H       1  UNL1        0.0278
     25 H           7.5937    0.0314   -1.0703 H       1  UNL1        0.0278
     26 H           5.5206   -1.4272    1.6458 H       1  UNL1        0.0620
     27 H           3.0717   -1.4731    1.6352 H       1  UNL1        0.0624
     28 H           1.1253    1.9068   -0.1459 H       1  UNL1        0.0631
     29 H          -1.0322    3.0427   -0.1870 H       1  UNL1        0.0624
     30 H          -3.4768    2.9538   -0.1949 H       1  UNL1        0.0624
     31 H           1.1762   -2.3759   -0.0845 H       1  UNL1        0.0836
     32 H          -5.5511    1.6582   -0.1731 H       1  UNL1        0.0627
     33 H          -5.2839   -2.6161   -0.0772 H       1  UNL1        0.0832
     34 H          -7.4743   -1.4901   -0.6014 H       1  UNL1        0.0278
     35 H          -7.4801   -0.5596    0.9163 H       1  UNL1        0.0278
     36 H          -7.5746    0.2693   -0.6566 H       1  UNL1        0.0278
     37 H           3.0449    1.0954   -1.8326 H       1  UNL1        0.0624
     38 H           5.4947    1.1508   -1.8057 H       1  UNL1        0.0620
@<TRIPOS>BOND
     1     1     2    1
     2     2     3   ar
     3     3     4   ar
     4     4     5   ar
     5     5     6    1
     6     6     7   ar
     7     7     8   ar
     8     8     9   ar
     9     9    10   ar
    10     8    11   ar
    11    11    12   ar
    12    12    13   ar
    13    11    14   ar
    14    14    15   ar
    15    15    16   ar
    16    16    17   ar
    17    17    18   ar
    18    18    19   ar
    19    17    20    1
    20     5    21   ar
    21    21    22   ar
    22    22     2   ar
    23    13     6   ar
    24    15    10   ar
    25    19    14   ar
    26     1    23    1
    27     1    24    1
    28     1    25    1
    29     3    26    1
    30     4    27    1
    31     7    28    1
    32     9    29    1
    33    10    30    1
    34    13    31    1
    35    16    32    1
    36    18    33    1
    37    20    34    1
    38    20    35    1
    39    20    36    1
    40    21    37    1
    41    22    38    1
