@<TRIPOS>MOLECULE
*****
 38 41 0 0 0
SMALL
GASTEIGER

@<TRIPOS>ATOM
      1 C          -7.0953   -0.5477   -0.0544 C.3     1  UNL1       -0.0397
      2 C          -5.6151   -0.3121   -0.0055 C.ar    1  UNL1       -0.0504
      3 C          -4.8060   -0.6531   -1.0931 C.ar    1  UNL1       -0.0583
      4 C          -3.4212   -0.4644   -1.0343 C.ar    1  UNL1       -0.0538
      5 C          -2.8084    0.0607    0.1143 C.ar    1  UNL1       -0.0178
      6 C          -1.3499    0.2596    0.1746 C.ar    1  UNL1       -0.0172
      7 C          -0.8066    1.5179    0.5472 C.ar    1  UNL1       -0.0534
      8 C           0.5773    1.7467    0.6155 C.ar    1  UNL1       -0.0528
      9 C           1.4281    0.7033    0.3066 C.ar    1  UNL1       -0.0064
     10 C           2.8728    0.6200    0.2820 C.ar    1  UNL1       -0.0064
     11 C           3.8481    1.5614    0.5553 C.ar    1  UNL1       -0.0531
     12 C           5.1931    1.1789    0.4404 C.ar    1  UNL1       -0.0582
     13 C           5.5609   -0.1350    0.0659 C.ar    1  UNL1       -0.0497
     14 C           4.5685   -1.0797   -0.2229 C.ar    1  UNL1       -0.0474
     15 C           3.2524   -0.6764   -0.1015 C.ar    1  UNL1        0.0302
     16 C           7.0111   -0.4968   -0.0787 C.3     1  UNL1       -0.0397
     17 C           0.8885   -0.5383   -0.0624 C.ar    1  UNL1        0.0306
     18 C           2.0167   -1.4546   -0.3348 C.2     1  UNL1        0.1943
     19 O           1.9427   -2.6137   -0.6830 O.2     1  UNL1       -0.2866
     20 C          -0.4693   -0.7886   -0.1366 C.ar    1  UNL1       -0.0426
     21 C          -3.6298    0.3849    1.2057 C.ar    1  UNL1       -0.0538
     22 C          -5.0148    0.1963    1.1499 C.ar    1  UNL1       -0.0583
     23 H          -7.4745   -0.4399   -1.0761 H       1  UNL1        0.0278
     24 H          -7.3259   -1.5555    0.3044 H       1  UNL1        0.0278
     25 H          -7.6274    0.1800    0.5674 H       1  UNL1        0.0278
     26 H          -5.2463   -1.0676   -1.9973 H       1  UNL1        0.0620
     27 H          -2.8215   -0.7269   -1.9037 H       1  UNL1        0.0624
     28 H          -1.4798    2.3436    0.7778 H       1  UNL1        0.0624
     29 H           0.9552    2.7229    0.9013 H       1  UNL1        0.0624
     30 H           3.5925    2.5744    0.8485 H       1  UNL1        0.0624
     31 H           5.9678    1.9164    0.6466 H       1  UNL1        0.0620
     32 H           4.8067   -2.0929   -0.5305 H       1  UNL1        0.0627
     33 H           7.3567   -0.2580   -1.0891 H       1  UNL1        0.0278
     34 H           7.6228    0.0516    0.6453 H       1  UNL1        0.0278
     35 H           7.1682   -1.5647    0.1060 H       1  UNL1        0.0278
     36 H          -0.8262   -1.7748   -0.4181 H       1  UNL1        0.0631
     37 H          -3.1926    0.7749    2.1226 H       1  UNL1        0.0624
     38 H          -5.6196    0.4471    2.0184 H       1  UNL1        0.0620
@<TRIPOS>BOND
     1     1     2    1
     2     2     3   ar
     3     3     4   ar
     4     4     5   ar
     5     5     6    1
     6     6     7   ar
     7     7     8   ar
     8     8     9   ar
     9     9    10    1
    10    10    11   ar
    11    11    12   ar
    12    12    13   ar
    13    13    14   ar
    14    14    15   ar
    15    13    16    1
    16     9    17   ar
    17    17    18    1
    18    18    19    2
    19    17    20   ar
    20     5    21   ar
    21    21    22   ar
    22    22     2   ar
    23    20     6   ar
    24    15    10   ar
    25    18    15    1
    26     1    23    1
    27     1    24    1
    28     1    25    1
    29     3    26    1
    30     4    27    1
    31     7    28    1
    32     8    29    1
    33    11    30    1
    34    12    31    1
    35    14    32    1
    36    16    33    1
    37    16    34    1
    38    16    35    1
    39    20    36    1
    40    21    37    1
    41    22    38    1
