@<TRIPOS>MOLECULE
*****
 40 44 0 0 0
SMALL
GASTEIGER

@<TRIPOS>ATOM
      1 C          -7.0438    0.3354   -1.5311 C.3     1  UNL1       -0.0376
      2 C          -5.6200    0.1692   -1.0953 C.ar    1  UNL1       -0.0223
      3 C          -4.5749    0.2315   -2.0430 C.ar    1  UNL1       -0.0561
      4 C          -3.2049    0.0866   -1.7168 C.ar    1  UNL1       -0.0516
      5 C          -2.7221   -0.1396   -0.4057 C.ar    1  UNL1        0.0104
      6 C          -1.2936   -0.2798   -0.0993 C.ar    1  UNL1       -0.0139
      7 C          -0.3718    0.6750   -0.5514 C.ar    1  UNL1       -0.0281
      8 C           0.9646    0.4823   -0.2440 C.ar    1  UNL1        0.1019
      9 C           1.4652   -0.6057    0.4897 C.ar    1  UNL1        0.0092
     10 C           0.5589   -1.5525    0.9370 C.ar    1  UNL1       -0.0516
     11 C          -0.8058   -1.3865    0.6403 C.ar    1  UNL1       -0.0533
     12 C           2.9182   -0.5637    0.6692 C.ar    1  UNL1        0.0092
     13 C           3.7401   -1.4646    1.3297 C.ar    1  UNL1       -0.0519
     14 C           5.1227   -1.2225    1.3751 C.ar    1  UNL1       -0.0582
     15 C           5.6949   -0.0796    0.7738 C.ar    1  UNL1       -0.0486
     16 C           4.8760    0.8265    0.0941 C.ar    1  UNL1       -0.0329
     17 C           3.5192    0.5576    0.0691 C.ar    1  UNL1        0.1016
     18 S           2.2880    1.5437   -0.7097 S.O2    1  UNL1        0.0262
     19 O           2.4604    1.4556   -2.1436 O.2     1  UNL1       -0.1643
     20 O           2.1595    2.7878    0.0170 O.2     1  UNL1       -0.1643
     21 C           7.1814    0.1276    0.8157 C.3     1  UNL1       -0.0397
     22 C          -3.7321   -0.2104    0.6016 C.ar    1  UNL1        0.1078
     23 N          -3.5444   -0.4049    1.9205 N.ar    1  UNL1       -0.1902
     24 S          -5.0385   -0.3896    2.6328 S.2     1  UNL1        0.1165
     25 N          -6.0089   -0.1464    1.3136 N.ar    1  UNL1       -0.1905
     26 C          -5.1993   -0.0529    0.2455 C.ar    1  UNL1        0.1034
     27 H          -7.3059   -0.4380   -2.2601 H       1  UNL1        0.0278
     28 H          -7.1831    1.3194   -1.9902 H       1  UNL1        0.0278
     29 H          -7.7385    0.2544   -0.6900 H       1  UNL1        0.0278
     30 H          -4.8303    0.3998   -3.0913 H       1  UNL1        0.0621
     31 H          -2.4865    0.1439   -2.5374 H       1  UNL1        0.0624
     32 H          -0.6820    1.5496   -1.1160 H       1  UNL1        0.0643
     33 H           0.8775   -2.4173    1.5113 H       1  UNL1        0.0624
     34 H          -1.5042   -2.1434    0.9986 H       1  UNL1        0.0624
     35 H           3.3375   -2.3520    1.8090 H       1  UNL1        0.0624
     36 H           5.7631   -1.9380    1.8898 H       1  UNL1        0.0620
     37 H           5.2778    1.7080   -0.3958 H       1  UNL1        0.0639
     38 H           7.4295    1.1930    0.7652 H       1  UNL1        0.0278
     39 H           7.6022   -0.2600    1.7494 H       1  UNL1        0.0278
     40 H           7.6540   -0.3857   -0.0273 H       1  UNL1        0.0278
@<TRIPOS>BOND
     1     1     2    1
     2     2     3   ar
     3     3     4   ar
     4     4     5   ar
     5     5     6    1
     6     6     7   ar
     7     7     8   ar
     8     8     9   ar
     9     9    10   ar
    10    10    11   ar
    11     9    12    1
    12    12    13   ar
    13    13    14   ar
    14    14    15   ar
    15    15    16   ar
    16    16    17   ar
    17    17    18    1
    18    18    19    2
    19    18    20    2
    20    15    21    1
    21     5    22   ar
    22    22    23   ar
    23    23    24   ar
    24    24    25   ar
    25    25    26   ar
    26    26     2   ar
    27    11     6   ar
    28    18     8    1
    29    17    12   ar
    30    26    22   ar
    31     1    27    1
    32     1    28    1
    33     1    29    1
    34     3    30    1
    35     4    31    1
    36     7    32    1
    37    10    33    1
    38    11    34    1
    39    13    35    1
    40    14    36    1
    41    16    37    1
    42    21    38    1
    43    21    39    1
    44    21    40    1
