@<TRIPOS>MOLECULE
*****
 27 28 0 0 0
SMALL
GASTEIGER

@<TRIPOS>ATOM
      1 C           4.6447    0.9145    0.7969 C.3     1  UNL1       -0.0397
      2 C           3.2233    0.5826    0.4521 C.ar    1  UNL1       -0.0504
      3 C           2.8697   -0.7158    0.0708 C.ar    1  UNL1       -0.0582
      4 C           1.5382   -1.0339   -0.2175 C.ar    1  UNL1       -0.0523
      5 C           0.5318   -0.0604   -0.1288 C.ar    1  UNL1        0.0018
      6 C          -0.8881   -0.3705   -0.4229 C.ar    1  UNL1        0.0874
      7 C          -1.1973   -1.0824   -1.5238 C.ar    1  UNL1        0.0309
      8 N          -2.5003   -1.3737   -1.8264 N.ar    1  UNL1       -0.3256
      9 C          -3.5333   -0.9488   -1.0289 C.ar    1  UNL1        0.2699
     10 C          -3.0884   -0.1350    0.1853 C.ar    1  UNL1        0.1030
     11 C          -4.1753    0.3681    1.0883 C.3     1  UNL1       -0.0171
     12 N          -1.8391    0.1276    0.4470 N.ar    1  UNL1       -0.2451
     13 O          -4.7113   -1.1802   -1.2458 O.2     1  UNL1       -0.2660
     14 C           0.8900    1.2306    0.2841 C.ar    1  UNL1       -0.0523
     15 C           2.2206    1.5498    0.5720 C.ar    1  UNL1       -0.0582
     16 H           4.8653    1.9641    0.5757 H       1  UNL1        0.0278
     17 H           5.3410    0.3061    0.2101 H       1  UNL1        0.0278
     18 H           4.8244    0.7315    1.8607 H       1  UNL1        0.0278
     19 H           3.6280   -1.4928    0.0026 H       1  UNL1        0.0620
     20 H           1.2956   -2.0574   -0.4925 H       1  UNL1        0.0624
     21 H          -0.4533   -1.4505   -2.2228 H       1  UNL1        0.0829
     22 H          -2.7410   -1.9079   -2.6512 H       1  UNL1        0.1684
     23 H          -4.8468    1.0208    0.5240 H       1  UNL1        0.0294
     24 H          -4.7408   -0.4784    1.4872 H       1  UNL1        0.0294
     25 H          -3.7485    0.9335    1.9214 H       1  UNL1        0.0294
     26 H           0.1264    1.9992    0.3876 H       1  UNL1        0.0624
     27 H           2.4645    2.5594    0.8947 H       1  UNL1        0.0620
@<TRIPOS>BOND
     1     1     2    1
     2     2     3   ar
     3     3     4   ar
     4     4     5   ar
     5     5     6    1
     6     6     7   ar
     7     7     8   ar
     8     8     9   ar
     9     9    10   ar
    10    10    11    1
    11    10    12   ar
    12     9    13    2
    13     5    14   ar
    14    14    15   ar
    15    15     2   ar
    16    12     6   ar
    17     1    16    1
    18     1    17    1
    19     1    18    1
    20     3    19    1
    21     4    20    1
    22     7    21    1
    23     8    22    1
    24    11    23    1
    25    11    24    1
    26    11    25    1
    27    14    26    1
    28    15    27    1
