@<TRIPOS>MOLECULE
*****
 27 28 0 0 0
SMALL
GASTEIGER

@<TRIPOS>ATOM
      1 C           4.7952   -0.2069    0.0997 C.3     1  UNL1       -0.0397
      2 C           3.3062   -0.0382    0.1476 C.ar    1  UNL1       -0.0504
      3 C           2.7222    1.2032   -0.1162 C.ar    1  UNL1       -0.0582
      4 C           1.3295    1.3520   -0.1041 C.ar    1  UNL1       -0.0523
      5 C           0.4773    0.2662    0.1654 C.ar    1  UNL1        0.0004
      6 C          -0.9951    0.4047    0.1891 C.ar    1  UNL1        0.0713
      7 N          -1.6976   -0.6958   -0.1888 N.ar    1  UNL1       -0.2519
      8 C          -3.0506   -0.6359   -0.1935 C.ar    1  UNL1        0.0389
      9 C          -3.7896   -1.8671   -0.6237 C.3     1  UNL1       -0.0223
     10 C          -3.7508    0.5038    0.1802 C.ar    1  UNL1       -0.0406
     11 C          -3.0326    1.6240    0.5765 C.ar    1  UNL1       -0.0581
     12 C          -1.6409    1.5761    0.5831 C.ar    1  UNL1       -0.0357
     13 C           1.0846   -0.9799    0.4034 C.ar    1  UNL1       -0.0523
     14 C           2.4755   -1.1336    0.3931 C.ar    1  UNL1       -0.0582
     15 H           5.1107   -0.4622   -0.9166 H       1  UNL1        0.0278
     16 H           5.3026    0.7135    0.4073 H       1  UNL1        0.0278
     17 H           5.1207   -0.9999    0.7813 H       1  UNL1        0.0278
     18 H           3.3456    2.0660   -0.3400 H       1  UNL1        0.0620
     19 H           0.9193    2.3328   -0.3328 H       1  UNL1        0.0624
     20 H          -3.0918   -2.6698   -0.8833 H       1  UNL1        0.0292
     21 H          -4.4035   -1.6516   -1.5037 H       1  UNL1        0.0292
     22 H          -4.4334   -2.2241    0.1861 H       1  UNL1        0.0292
     23 H          -4.8355    0.5210    0.1679 H       1  UNL1        0.0635
     24 H          -3.5506    2.5282    0.8828 H       1  UNL1        0.0619
     25 H          -1.0796    2.4441    0.9110 H       1  UNL1        0.0639
     26 H           0.4628   -1.8524    0.6004 H       1  UNL1        0.0624
     27 H           2.8995   -2.1181    0.5767 H       1  UNL1        0.0620
@<TRIPOS>BOND
     1     1     2    1
     2     2     3   ar
     3     3     4   ar
     4     4     5   ar
     5     5     6    1
     6     6     7   ar
     7     7     8   ar
     8     8     9    1
     9     8    10   ar
    10    10    11   ar
    11    11    12   ar
    12     5    13   ar
    13    13    14   ar
    14    14     2   ar
    15    12     6   ar
    16     1    15    1
    17     1    16    1
    18     1    17    1
    19     3    18    1
    20     4    19    1
    21     9    20    1
    22     9    21    1
    23     9    22    1
    24    10    23    1
    25    11    24    1
    26    12    25    1
    27    13    26    1
    28    14    27    1
