@<TRIPOS>MOLECULE
*****
 36 38 0 0 0
SMALL
GASTEIGER

@<TRIPOS>ATOM
      1 C          -6.1778    0.9530   -0.7085 C.3     1  UNL1       -0.0397
      2 C          -4.8249    0.3945   -0.3824 C.ar    1  UNL1       -0.0504
      3 C          -4.6133   -0.3069    0.8073 C.ar    1  UNL1       -0.0582
      4 C          -3.3421   -0.7999    1.1264 C.ar    1  UNL1       -0.0523
      5 C          -2.2434   -0.6019    0.2717 C.ar    1  UNL1        0.0004
      6 C          -0.8962   -1.1192    0.5899 C.ar    1  UNL1        0.0717
      7 N           0.1422   -0.3508    0.1689 N.ar    1  UNL1       -0.2452
      8 C           1.4185   -0.7549    0.4246 C.ar    1  UNL1        0.0898
      9 C           2.5063    0.1334   -0.0533 C.ar    1  UNL1        0.0894
     10 N           3.7843   -0.2926    0.1592 N.ar    1  UNL1       -0.2503
     11 C           4.8083    0.4883   -0.2621 C.ar    1  UNL1        0.0390
     12 C           6.1996   -0.0115   -0.0124 C.3     1  UNL1       -0.0223
     13 C           4.6100    1.7059   -0.9012 C.ar    1  UNL1       -0.0406
     14 C           3.3090    2.1400   -1.1167 C.ar    1  UNL1       -0.0580
     15 C           2.2470    1.3480   -0.6897 C.ar    1  UNL1       -0.0342
     16 C           1.6761   -1.9456    1.1019 C.ar    1  UNL1       -0.0342
     17 C           0.6128   -2.7354    1.5240 C.ar    1  UNL1       -0.0577
     18 C          -0.6881   -2.3193    1.2654 C.ar    1  UNL1       -0.0357
     19 C          -2.4714    0.1274   -0.9090 C.ar    1  UNL1       -0.0523
     20 C          -3.7401    0.6210   -1.2325 C.ar    1  UNL1       -0.0582
     21 H          -6.9711    0.3203   -0.2966 H       1  UNL1        0.0278
     22 H          -6.2769    1.9605   -0.2929 H       1  UNL1        0.0278
     23 H          -6.3302    1.0001   -1.7919 H       1  UNL1        0.0278
     24 H          -5.4353   -0.4717    1.5005 H       1  UNL1        0.0620
     25 H          -3.2191   -1.3255    2.0706 H       1  UNL1        0.0624
     26 H           6.7324   -0.1363   -0.9602 H       1  UNL1        0.0292
     27 H           6.7476    0.6949    0.6188 H       1  UNL1        0.0292
     28 H           6.1799   -0.9800    0.4976 H       1  UNL1        0.0292
     29 H           5.4513    2.3089   -1.2266 H       1  UNL1        0.0635
     30 H           3.1186    3.0874   -1.6123 H       1  UNL1        0.0619
     31 H           1.2251    1.6789   -0.8510 H       1  UNL1        0.0639
     32 H           2.6975   -2.2590    1.2981 H       1  UNL1        0.0639
     33 H           0.7991   -3.6692    2.0463 H       1  UNL1        0.0619
     34 H          -1.5205   -2.9415    1.5763 H       1  UNL1        0.0639
     35 H          -1.6458    0.3151   -1.5941 H       1  UNL1        0.0624
     36 H          -3.8694    1.1837   -2.1541 H       1  UNL1        0.0620
@<TRIPOS>BOND
     1     1     2    1
     2     2     3   ar
     3     3     4   ar
     4     4     5   ar
     5     5     6    1
     6     6     7   ar
     7     7     8   ar
     8     8     9    1
     9     9    10   ar
    10    10    11   ar
    11    11    12    1
    12    11    13   ar
    13    13    14   ar
    14    14    15   ar
    15     8    16   ar
    16    16    17   ar
    17    17    18   ar
    18     5    19   ar
    19    19    20   ar
    20    20     2   ar
    21    18     6   ar
    22    15     9   ar
    23     1    21    1
    24     1    22    1
    25     1    23    1
    26     3    24    1
    27     4    25    1
    28    12    26    1
    29    12    27    1
    30    12    28    1
    31    13    29    1
    32    14    30    1
    33    15    31    1
    34    16    32    1
    35    17    33    1
    36    18    34    1
    37    19    35    1
    38    20    36    1
