@<TRIPOS>MOLECULE
*****
 28 29 0 0 0
SMALL
GASTEIGER

@<TRIPOS>ATOM
      1 C           5.1129    0.2397   -0.0423 C.3     1  UNL1       -0.0397
      2 C           3.6241    0.1416    0.1078 C.ar    1  UNL1       -0.0504
      3 C           3.0000    0.5526    1.2880 C.ar    1  UNL1       -0.0582
      4 C           1.6066    0.4921    1.4155 C.ar    1  UNL1       -0.0523
      5 C           0.7934    0.0253    0.3671 C.ar    1  UNL1        0.0019
      6 C          -0.6764   -0.0533    0.4848 C.ar    1  UNL1        0.0911
      7 N          -1.3837    0.1031   -0.6671 N.ar    1  UNL1       -0.2291
      8 C          -2.7270    0.0392   -0.5817 C.ar    1  UNL1        0.1380
      9 N          -3.4112    0.2262   -1.7831 N.pl3   1  UNL1       -0.3417
     10 C          -3.3781   -0.1742    0.6409 C.ar    1  UNL1        0.0776
     11 N          -2.6887   -0.3544    1.7961 N.ar    1  UNL1       -0.2546
     12 C          -1.3399   -0.2885    1.6865 C.ar    1  UNL1        0.0540
     13 C          -4.8729   -0.2088    0.7338 C.3     1  UNL1       -0.0190
     14 C           1.4395   -0.3595   -0.8217 C.ar    1  UNL1       -0.0523
     15 C           2.8315   -0.3014   -0.9530 C.ar    1  UNL1       -0.0582
     16 H           5.6129    0.0939    0.9210 H       1  UNL1        0.0278
     17 H           5.4885   -0.5318   -0.7227 H       1  UNL1        0.0278
     18 H           5.3853    1.2232   -0.4374 H       1  UNL1        0.0278
     19 H           3.5929    0.9304    2.1184 H       1  UNL1        0.0620
     20 H           1.1678    0.8413    2.3477 H       1  UNL1        0.0624
     21 H          -2.7043    0.3270   -2.5082 H       1  UNL1        0.1438
     22 H          -4.0396   -0.5442   -1.9791 H       1  UNL1        0.1438
     23 H          -0.8042   -0.4476    2.6159 H       1  UNL1        0.0851
     24 H          -5.2735   -1.0321    0.1344 H       1  UNL1        0.0294
     25 H          -5.2996    0.7364    0.3841 H       1  UNL1        0.0294
     26 H          -5.1942   -0.3594    1.7698 H       1  UNL1        0.0294
     27 H           0.8508   -0.7129   -1.6673 H       1  UNL1        0.0624
     28 H           3.2874   -0.6040   -1.8931 H       1  UNL1        0.0620
@<TRIPOS>BOND
     1     1     2    1
     2     2     3   ar
     3     3     4   ar
     4     4     5   ar
     5     5     6    1
     6     6     7   ar
     7     7     8   ar
     8     8     9    1
     9     8    10   ar
    10    10    11   ar
    11    11    12   ar
    12    10    13    1
    13     5    14   ar
    14    14    15   ar
    15    15     2   ar
    16    12     6   ar
    17     1    16    1
    18     1    17    1
    19     1    18    1
    20     3    19    1
    21     4    20    1
    22     9    21    1
    23     9    22    1
    24    12    23    1
    25    13    24    1
    26    13    25    1
    27    13    26    1
    28    14    27    1
    29    15    28    1
