@<TRIPOS>MOLECULE
*****
 38 43 0 0 0
SMALL
GASTEIGER

@<TRIPOS>ATOM
      1 SI         -5.5662   -1.9837   -0.1951 Si      1  UNL1        0.0000
      2 C          -5.9598   -0.1647   -0.3387 C.2     1  UNL1        0.0000
      3 C          -4.8448    0.5771   -0.2050 C.ar    1  UNL1        0.0000
      4 C          -4.7982    2.0201   -0.3066 C.ar    1  UNL1        0.0000
      5 C          -3.6092    2.6365   -0.1877 C.ar    1  UNL1        0.0000
      6 C          -2.3743    1.8968    0.0610 C.ar    1  UNL1        0.0000
      7 C          -2.3213    0.5470    0.1890 C.ar    1  UNL1        0.0000
      8 C          -1.0343   -0.0176    0.4810 C.ar    1  UNL1        0.0000
      9 C          -0.6933   -1.0727    1.3238 C.ar    1  UNL1        0.0000
     10 C           0.7132   -1.2437    1.2810 C.ar    1  UNL1        0.0000
     11 C           1.6438   -2.0942    1.8719 C.ar    1  UNL1        0.0000
     12 N           2.9675   -1.9616    1.5898 N.ar    1  UNL1        0.0000
     13 C           3.3977   -1.0076    0.7395 C.ar    1  UNL1        0.0000
     14 C           4.7527   -0.8855    0.4629 C.ar    1  UNL1        0.0000
     15 C           5.2642    0.0999   -0.4226 C.ar    1  UNL1        0.0000
     16 C           6.6132    0.3778   -0.8280 C.ar    1  UNL1        0.0000
     17 C           6.7005    1.4273   -1.7122 C.ar    1  UNL1        0.0000
     18 S           5.1711    2.0916   -2.0672 S.2     1  UNL1        0.0000
     19 C           4.3625    0.9750   -1.0339 C.ar    1  UNL1        0.0000
     20 C           2.9825    0.8938   -0.7882 C.ar    1  UNL1        0.0000
     21 C           2.5374   -0.1061    0.1010 C.ar    1  UNL1        0.0000
     22 C           1.1819   -0.2737    0.4156 C.ar    1  UNL1        0.0000
     23 O           0.1433    0.4672   -0.0580 O.2     1  UNL1        0.0000
     24 C          -3.5911   -0.1858    0.0354 C.ar    1  UNL1        0.0000
     25 C          -3.7665   -1.5242    0.0529 C.2     1  UNL1        0.0000
     26 H          -5.7910   -2.7187   -1.4627 H       1  UNL1        0.0000
     27 H          -6.1560   -2.5998    1.0177 H       1  UNL1        0.0000
     28 H          -6.9619    0.1860   -0.5264 H       1  UNL1        0.0000
     29 H          -5.7097    2.5778   -0.4885 H       1  UNL1        0.0000
     30 H          -3.5365    3.7170   -0.2663 H       1  UNL1        0.0000
     31 H          -1.4783    2.5056    0.1638 H       1  UNL1        0.0000
     32 H          -1.3929   -1.6458    1.9162 H       1  UNL1        0.0000
     33 H           1.3766   -2.8830    2.5658 H       1  UNL1        0.0000
     34 H           5.4431   -1.5734    0.9460 H       1  UNL1        0.0000
     35 H           7.4779   -0.1745   -0.4804 H       1  UNL1        0.0000
     36 H           7.5916    1.8366   -2.1679 H       1  UNL1        0.0000
     37 H           2.2861    1.5756   -1.2671 H       1  UNL1        0.0000
     38 H          -3.0212   -2.2924    0.1712 H       1  UNL1        0.0000
@<TRIPOS>BOND
     1     1     2    1
     2     2     3    2
     3     3     4   ar
     4     4     5   ar
     5     5     6   ar
     6     6     7   ar
     7     7     8    1
     8     8     9   ar
     9     9    10   ar
    10    10    11   ar
    11    11    12   ar
    12    12    13   ar
    13    13    14   ar
    14    14    15   ar
    15    15    16   ar
    16    16    17   ar
    17    17    18   ar
    18    18    19   ar
    19    19    20   ar
    20    20    21   ar
    21    21    22   ar
    22    22    23   ar
    23     7    24   ar
    24    24    25    2
    25    25     1    1
    26    24     3   ar
    27    23     8   ar
    28    22    10   ar
    29    21    13   ar
    30    19    15   ar
    31     1    26    1
    32     1    27    1
    33     2    28    1
    34     4    29    1
    35     5    30    1
    36     6    31    1
    37     9    32    1
    38    11    33    1
    39    14    34    1
    40    16    35    1
    41    17    36    1
    42    20    37    1
    43    25    38    1
