@<TRIPOS>MOLECULE
*****
 35 36 0 0 0
SMALL
GASTEIGER

@<TRIPOS>ATOM
      1 C          -2.8325   -2.8665   -0.6466 C.3     1  UNL1       -0.0376
      2 C          -1.6382   -2.1372   -0.1329 C.ar    1  UNL1       -0.0232
      3 C          -0.5038   -2.7100    0.3004 C.ar    1  UNL1       -0.0550
      4 C           0.6365   -1.9648    0.7971 C.ar    1  UNL1       -0.0384
      5 C           0.6910   -0.6256    0.8807 C.ar    1  UNL1        0.0546
      6 N           1.7287    0.1615    1.3474 N.pl3   1  UNL1       -0.3422
      7 C           3.1339   -0.1932    1.4045 C.3     1  UNL1        0.0089
      8 C           3.7797   -0.1905    0.0192 C.3     1  UNL1       -0.0403
      9 C           3.8172    1.1919   -0.6173 C.3     1  UNL1       -0.0639
     10 C          -0.5252    0.0925    0.4120 C.ar    1  UNL1        0.1071
     11 N          -0.7208    1.3702    0.3663 N.2     1  UNL1       -0.2511
     12 C          -2.0969    1.4690   -0.1850 C.3     1  UNL1        0.1470
     13 C          -2.0453    2.2511   -1.4949 C.3     1  UNL1       -0.0197
     14 C          -2.9889    2.1642    0.8401 C.3     1  UNL1       -0.0197
     15 N          -2.6461    0.1153   -0.4581 N.2     1  UNL1       -0.2526
     16 C          -1.6880   -0.6666   -0.0926 C.ar    1  UNL1        0.0908
     17 H          -3.0457   -2.5751   -1.6802 H       1  UNL1        0.0278
     18 H          -2.6819   -3.9511   -0.6310 H       1  UNL1        0.0278
     19 H          -3.7118   -2.6438   -0.0336 H       1  UNL1        0.0278
     20 H          -0.4031   -3.7932    0.2968 H       1  UNL1        0.0621
     21 H           1.4817   -2.5612    1.1282 H       1  UNL1        0.0637
     22 H           1.5404    1.1544    1.1774 H       1  UNL1        0.1461
     23 H           3.6492    0.5227    2.0549 H       1  UNL1        0.0461
     24 H           3.2574   -1.1778    1.8693 H       1  UNL1        0.0461
     25 H           4.8083   -0.5582    0.1130 H       1  UNL1        0.0278
     26 H           3.2548   -0.8811   -0.6508 H       1  UNL1        0.0278
     27 H           2.8090    1.5707   -0.8115 H       1  UNL1        0.0230
     28 H           4.3367    1.9072    0.0281 H       1  UNL1        0.0230
     29 H           4.3482    1.1510   -1.5737 H       1  UNL1        0.0230
     30 H          -3.0420    2.3451   -1.9398 H       1  UNL1        0.0271
     31 H          -1.4035    1.7485   -2.2278 H       1  UNL1        0.0271
     32 H          -1.6418    3.2577   -1.3398 H       1  UNL1        0.0271
     33 H          -3.0231    1.5994    1.7790 H       1  UNL1        0.0271
     34 H          -2.6168    3.1679    1.0733 H       1  UNL1        0.0271
     35 H          -4.0172    2.2554    0.4734 H       1  UNL1        0.0271
@<TRIPOS>BOND
     1     1     2    1
     2     2     3   ar
     3     3     4   ar
     4     4     5   ar
     5     5     6    1
     6     6     7    1
     7     7     8    1
     8     8     9    1
     9     5    10   ar
    10    10    11    2
    11    11    12    1
    12    12    13    1
    13    12    14    1
    14    12    15    1
    15    15    16    2
    16    16     2   ar
    17    16    10   ar
    18     1    17    1
    19     1    18    1
    20     1    19    1
    21     3    20    1
    22     4    21    1
    23     6    22    1
    24     7    23    1
    25     7    24    1
    26     8    25    1
    27     8    26    1
    28     9    27    1
    29     9    28    1
    30     9    29    1
    31    13    30    1
    32    13    31    1
    33    13    32    1
    34    14    33    1
    35    14    34    1
    36    14    35    1
