@<TRIPOS>MOLECULE
*****
 40 44 0 0 0
SMALL
GASTEIGER

@<TRIPOS>ATOM
      1 C           5.2521   -1.6713    0.2710 C.3     1  UNL1       -0.0362
      2 C           4.1391   -0.6867    0.3868 C.ar    1  UNL1       -0.0057
      3 C           4.2859    0.6158    0.7909 C.ar    1  UNL1       -0.0314
      4 C           2.9855    1.2535    0.7791 C.ar    1  UNL1        0.0490
      5 C           2.4321    2.4399    1.0507 C.ar    1  UNL1       -0.0371
      6 C           0.9626    2.5342    0.8792 C.ar    1  UNL1       -0.0500
      7 C           0.1724    1.5007    0.4469 C.ar    1  UNL1        0.0082
      8 C          -1.2833    1.7428    0.3930 C.ar    1  UNL1       -0.0158
      9 C          -1.8212    2.7050   -0.4741 C.ar    1  UNL1       -0.0540
     10 C          -3.2002    2.9198   -0.5245 C.ar    1  UNL1       -0.0612
     11 C          -4.0522    2.1751    0.2893 C.ar    1  UNL1       -0.0617
     12 C          -3.5280    1.2157    1.1538 C.ar    1  UNL1       -0.0612
     13 C          -2.1494    1.0010    1.2071 C.ar    1  UNL1       -0.0540
     14 C           0.8180    0.2502    0.1443 C.ar    1  UNL1        0.0821
     15 C           0.6382   -1.0613   -0.2955 C.ar    1  UNL1        0.0977
     16 C          -0.6065   -1.6891   -0.6964 C.ar    1  UNL1        0.0025
     17 C          -1.5047   -1.0540   -1.5614 C.ar    1  UNL1       -0.0525
     18 C          -2.6969   -1.6826   -1.9298 C.ar    1  UNL1       -0.0611
     19 C          -2.9918   -2.9575   -1.4497 C.ar    1  UNL1       -0.0617
     20 C          -2.0928   -3.6085   -0.6068 C.ar    1  UNL1       -0.0611
     21 C          -0.9027   -2.9784   -0.2360 C.ar    1  UNL1       -0.0525
     22 N           1.8592   -1.7853   -0.2874 N.ar    1  UNL1       -0.2269
     23 C           2.7498   -0.9088    0.1046 C.ar    1  UNL1        0.1422
     24 N           2.1512    0.2661    0.3549 N.ar    1  UNL1       -0.2918
     25 H           6.2143   -1.2295    0.5497 H       1  UNL1        0.0279
     26 H           5.0711   -2.5286    0.9271 H       1  UNL1        0.0279
     27 H           5.3326   -2.0348   -0.7584 H       1  UNL1        0.0279
     28 H           5.2064    1.1003    1.0769 H       1  UNL1        0.0642
     29 H           2.9921    3.2985    1.3984 H       1  UNL1        0.0638
     30 H           0.5264    3.4934    1.1525 H       1  UNL1        0.0625
     31 H          -1.1699    3.2846   -1.1243 H       1  UNL1        0.0624
     32 H          -3.6095    3.6645   -1.2021 H       1  UNL1        0.0618
     33 H          -5.1259    2.3388    0.2472 H       1  UNL1        0.0618
     34 H          -4.1914    0.6284    1.7833 H       1  UNL1        0.0618
     35 H          -1.7557    0.2429    1.8810 H       1  UNL1        0.0624
     36 H          -1.2837   -0.0681   -1.9613 H       1  UNL1        0.0624
     37 H          -3.3915   -1.1760   -2.5944 H       1  UNL1        0.0618
     38 H          -3.9177   -3.4470   -1.7395 H       1  UNL1        0.0618
     39 H          -2.3130   -4.6075   -0.2407 H       1  UNL1        0.0618
     40 H          -0.2010   -3.4964    0.4148 H       1  UNL1        0.0624
@<TRIPOS>BOND
     1     1     2    1
     2     2     3   ar
     3     3     4   ar
     4     4     5   ar
     5     5     6   ar
     6     6     7   ar
     7     7     8    1
     8     8     9   ar
     9     9    10   ar
    10    10    11   ar
    11    11    12   ar
    12    12    13   ar
    13     7    14   ar
    14    14    15   ar
    15    15    16    1
    16    16    17   ar
    17    17    18   ar
    18    18    19   ar
    19    19    20   ar
    20    20    21   ar
    21    15    22   ar
    22    22    23   ar
    23    23    24   ar
    24    23     2   ar
    25    24     4   ar
    26    13     8   ar
    27    24    14   ar
    28    21    16   ar
    29     1    25    1
    30     1    26    1
    31     1    27    1
    32     3    28    1
    33     5    29    1
    34     6    30    1
    35     9    31    1
    36    10    32    1
    37    11    33    1
    38    12    34    1
    39    13    35    1
    40    17    36    1
    41    18    37    1
    42    19    38    1
    43    20    39    1
    44    21    40    1
