@<TRIPOS>MOLECULE
*****
 30 33 0 0 0
SMALL
GASTEIGER

@<TRIPOS>ATOM
      1 C           3.6739    2.3029   -0.4993 C.3     1  UNL1       -0.0362
      2 C           2.9810    1.0070   -0.2498 C.ar    1  UNL1       -0.0057
      3 C           3.6160   -0.1923   -0.0433 C.ar    1  UNL1       -0.0314
      4 C           2.6144   -1.2183    0.1657 C.ar    1  UNL1        0.0490
      5 C           2.5328   -2.5313    0.4164 C.ar    1  UNL1       -0.0377
      6 C           1.1664   -3.0912    0.5614 C.ar    1  UNL1       -0.0578
      7 C           0.0365   -2.3392    0.4439 C.ar    1  UNL1       -0.0356
      8 C           0.1606   -0.9460    0.1613 C.ar    1  UNL1        0.0745
      9 C          -0.5246    0.2469   -0.0533 C.ar    1  UNL1        0.0971
     10 C          -1.9654    0.4400   -0.0556 C.ar    1  UNL1        0.0024
     11 C          -2.4910    1.6706    0.3622 C.ar    1  UNL1       -0.0525
     12 C          -3.8704    1.8915    0.3726 C.ar    1  UNL1       -0.0611
     13 C          -4.7393    0.8853   -0.0434 C.ar    1  UNL1       -0.0617
     14 C          -4.2297   -0.3376   -0.4757 C.ar    1  UNL1       -0.0611
     15 C          -2.8491   -0.5585   -0.4852 C.ar    1  UNL1       -0.0525
     16 N           0.3780    1.3281   -0.2506 N.ar    1  UNL1       -0.2269
     17 C           1.5658    0.7778   -0.1808 C.ar    1  UNL1        0.1421
     18 N           1.4414   -0.5361    0.0589 N.ar    1  UNL1       -0.2924
     19 H           4.7626    2.1867   -0.4991 H       1  UNL1        0.0279
     20 H           3.4115    3.0297    0.2760 H       1  UNL1        0.0279
     21 H           3.3778    2.7115   -1.4707 H       1  UNL1        0.0279
     22 H           4.6813   -0.3617   -0.0319 H       1  UNL1        0.0642
     23 H           3.3955   -3.1760    0.5247 H       1  UNL1        0.0638
     24 H           1.0961   -4.1531    0.7822 H       1  UNL1        0.0619
     25 H          -0.9446   -2.7830    0.5745 H       1  UNL1        0.0639
     26 H          -1.8207    2.4661    0.6832 H       1  UNL1        0.0624
     27 H          -4.2618    2.8503    0.7017 H       1  UNL1        0.0618
     28 H          -5.8124    1.0577   -0.0390 H       1  UNL1        0.0618
     29 H          -4.9060   -1.1181   -0.8143 H       1  UNL1        0.0618
     30 H          -2.4769   -1.5097   -0.8538 H       1  UNL1        0.0624
@<TRIPOS>BOND
     1     1     2    1
     2     2     3   ar
     3     3     4   ar
     4     4     5   ar
     5     5     6   ar
     6     6     7   ar
     7     7     8   ar
     8     8     9   ar
     9     9    10    1
    10    10    11   ar
    11    11    12   ar
    12    12    13   ar
    13    13    14   ar
    14    14    15   ar
    15     9    16   ar
    16    16    17   ar
    17    17    18   ar
    18    17     2   ar
    19    18     4   ar
    20    18     8   ar
    21    15    10   ar
    22     1    19    1
    23     1    20    1
    24     1    21    1
    25     3    22    1
    26     5    23    1
    27     6    24    1
    28     7    25    1
    29    11    26    1
    30    12    27    1
    31    13    28    1
    32    14    29    1
    33    15    30    1
