@<TRIPOS>MOLECULE
*****
 20 22 0 0 0
SMALL
GASTEIGER

@<TRIPOS>ATOM
      1 C           3.2413    0.2262    0.1764 C.3     1  UNL1       -0.0362
      2 C           1.7752   -0.0159    0.0599 C.ar    1  UNL1       -0.0057
      3 C           1.2057   -1.2196   -0.2765 C.ar    1  UNL1       -0.0314
      4 C          -0.2355   -1.0661   -0.2883 C.ar    1  UNL1        0.0489
      5 C          -1.3439   -1.7832   -0.5164 C.ar    1  UNL1       -0.0377
      6 C          -2.6379   -1.0656   -0.3749 C.ar    1  UNL1       -0.0578
      7 C          -2.7270    0.2507   -0.0326 C.ar    1  UNL1       -0.0362
      8 C          -1.5259    0.9770    0.2013 C.ar    1  UNL1        0.0666
      9 C          -0.9945    2.2091    0.5438 C.ar    1  UNL1        0.0538
     10 N           0.4200    2.1726    0.5853 N.ar    1  UNL1       -0.2352
     11 C           0.7184    0.9330    0.2707 C.ar    1  UNL1        0.1414
     12 N          -0.4090    0.2402    0.0482 N.ar    1  UNL1       -0.2930
     13 H           3.5553    1.0041   -0.5269 H       1  UNL1        0.0279
     14 H           3.8196   -0.6781   -0.0396 H       1  UNL1        0.0279
     15 H           3.4932    0.5544    1.1898 H       1  UNL1        0.0279
     16 H           1.7275   -2.1373   -0.4985 H       1  UNL1        0.0642
     17 H          -1.3348   -2.8303   -0.7909 H       1  UNL1        0.0638
     18 H          -3.5385   -1.6452   -0.5595 H       1  UNL1        0.0619
     19 H          -3.6876    0.7460    0.0627 H       1  UNL1        0.0639
     20 H          -1.5217    3.1279    0.7659 H       1  UNL1        0.0851
@<TRIPOS>BOND
     1     1     2    1
     2     2     3   ar
     3     3     4   ar
     4     4     5   ar
     5     5     6   ar
     6     6     7   ar
     7     7     8   ar
     8     8     9   ar
     9     9    10   ar
    10    10    11   ar
    11    11    12   ar
    12    11     2   ar
    13    12     4   ar
    14    12     8   ar
    15     1    13    1
    16     1    14    1
    17     1    15    1
    18     3    16    1
    19     5    17    1
    20     6    18    1
    21     7    19    1
    22     9    20    1
