@<TRIPOS>MOLECULE
*****
 46 49 0 0 0
SMALL
GASTEIGER

@<TRIPOS>ATOM
      1 C           9.3107    0.8950    0.4917 C.3     1  UNL1       -0.0383
      2 C           7.8424    0.6360    0.3849 C.ar    1  UNL1       -0.0323
      3 C           6.9323    1.6794    0.2942 C.ar    1  UNL1        0.0312
      4 N           5.5913    1.5159    0.2245 N.ar    1  UNL1       -0.2547
      5 C           5.0985    0.2514    0.2633 C.ar    1  UNL1        0.0710
      6 C           5.9458   -0.8524    0.3608 C.ar    1  UNL1       -0.0354
      7 C           7.3256   -0.6561    0.4283 C.ar    1  UNL1       -0.0554
      8 C           3.6261    0.1342    0.1874 C.ar    1  UNL1        0.0004
      9 C           2.9213   -0.9101    0.8086 C.ar    1  UNL1       -0.0520
     10 C           1.5247   -1.0043    0.7211 C.ar    1  UNL1       -0.0534
     11 C           0.7746   -0.0541    0.0136 C.ar    1  UNL1       -0.0164
     12 C          -0.6885   -0.1527   -0.0740 C.ar    1  UNL1        0.0003
     13 C          -1.5224    0.9176    0.2405 C.ar    1  UNL1        0.0360
     14 N          -2.8774    0.8937    0.1765 N.ar    1  UNL1       -0.2544
     15 C          -3.4766   -0.2590   -0.2138 C.ar    1  UNL1        0.0710
     16 C          -2.7238   -1.3817   -0.5546 C.ar    1  UNL1       -0.0351
     17 C          -1.3292   -1.3253   -0.4820 C.ar    1  UNL1       -0.0506
     18 C          -4.9543   -0.2334   -0.2639 C.ar    1  UNL1        0.0004
     19 C          -5.6422    0.9604   -0.5467 C.ar    1  UNL1       -0.0523
     20 C          -7.0395    1.0072   -0.6064 C.ar    1  UNL1       -0.0582
     21 C          -5.7340   -1.3789   -0.0230 C.ar    1  UNL1       -0.0523
     22 C          -7.1328   -1.3371   -0.0810 C.ar    1  UNL1       -0.0582
     23 C          -7.7957   -0.1464   -0.3884 C.ar    1  UNL1       -0.0504
     24 C          -9.2938   -0.0917   -0.4156 C.3     1  UNL1       -0.0397
     25 C           1.4705    0.9951   -0.6013 C.ar    1  UNL1       -0.0534
     26 C           2.8660    1.0865   -0.5130 C.ar    1  UNL1       -0.0520
     27 H           9.8856    0.0679    0.0620 H       1  UNL1        0.0278
     28 H           9.5955    1.0144    1.5416 H       1  UNL1        0.0278
     29 H           9.5886    1.8020   -0.0554 H       1  UNL1        0.0278
     30 H           7.2614    2.7151    0.2736 H       1  UNL1        0.0832
     31 H           5.5533   -1.8633    0.3705 H       1  UNL1        0.0639
     32 H           7.9864   -1.5153    0.5099 H       1  UNL1        0.0621
     33 H           3.4470   -1.6602    1.3950 H       1  UNL1        0.0624
     34 H           1.0249   -1.8241    1.2341 H       1  UNL1        0.0624
     35 H          -1.1119    1.8669    0.5774 H       1  UNL1        0.0836
     36 H          -3.1999   -2.2943   -0.8969 H       1  UNL1        0.0639
     37 H          -0.7492   -2.2008   -0.7646 H       1  UNL1        0.0625
     38 H          -5.0801    1.8766   -0.7239 H       1  UNL1        0.0624
     39 H          -7.5275    1.9547   -0.8227 H       1  UNL1        0.0620
     40 H          -5.2629   -2.3237    0.2376 H       1  UNL1        0.0624
     41 H          -7.6993   -2.2431    0.1226 H       1  UNL1        0.0620
     42 H          -9.6442    0.6679   -1.1223 H       1  UNL1        0.0278
     43 H          -9.7138   -1.0510   -0.7359 H       1  UNL1        0.0278
     44 H          -9.6779    0.1477    0.5808 H       1  UNL1        0.0278
     45 H           0.9369    1.7548   -1.1696 H       1  UNL1        0.0624
     46 H           3.3677    1.9187   -1.0061 H       1  UNL1        0.0624
@<TRIPOS>BOND
     1     1     2    1
     2     2     3   ar
     3     3     4   ar
     4     4     5   ar
     5     5     6   ar
     6     6     7   ar
     7     5     8    1
     8     8     9   ar
     9     9    10   ar
    10    10    11   ar
    11    11    12    1
    12    12    13   ar
    13    13    14   ar
    14    14    15   ar
    15    15    16   ar
    16    16    17   ar
    17    15    18    1
    18    18    19   ar
    19    19    20   ar
    20    18    21   ar
    21    21    22   ar
    22    22    23   ar
    23    23    24    1
    24    11    25   ar
    25    25    26   ar
    26     7     2   ar
    27    26     8   ar
    28    17    12   ar
    29    23    20   ar
    30     1    27    1
    31     1    28    1
    32     1    29    1
    33     3    30    1
    34     6    31    1
    35     7    32    1
    36     9    33    1
    37    10    34    1
    38    13    35    1
    39    16    36    1
    40    17    37    1
    41    19    38    1
    42    20    39    1
    43    21    40    1
    44    22    41    1
    45    24    42    1
    46    24    43    1
    47    24    44    1
    48    25    45    1
    49    26    46    1
