@<TRIPOS>MOLECULE
*****
 21 22 0 0 0
SMALL
GASTEIGER

@<TRIPOS>ATOM
      1 C           3.5091    0.4997    0.5900 C.3     1  UNL1       -0.0331
      2 C           2.0699    0.5372    0.1981 C.ar    1  UNL1        0.0317
      3 C           1.4902    1.5469   -0.4639 C.ar    1  UNL1        0.0990
      4 O           0.1725    1.6249   -0.8449 O.2     1  UNL1       -0.4623
      5 C          -0.6472    0.5712   -0.5233 C.ar    1  UNL1        0.1418
      6 C          -1.9834    0.6631   -0.9161 C.ar    1  UNL1        0.0228
      7 C          -2.8528   -0.3813   -0.6121 C.ar    1  UNL1        0.1204
      8 O          -4.1666   -0.3394   -0.9738 O.3     1  UNL1       -0.5066
      9 C          -2.4090   -1.5088    0.0744 C.ar    1  UNL1       -0.0193
     10 C          -1.0728   -1.5993    0.4665 C.ar    1  UNL1       -0.0439
     11 C          -0.1939   -0.5544    0.1647 C.ar    1  UNL1        0.0644
     12 C           1.2225   -0.6226    0.5663 C.ar    1  UNL1        0.1953
     13 O           1.6730   -1.5870    1.1718 O.2     1  UNL1       -0.2868
     14 H           4.0397    1.4027    0.2698 H       1  UNL1        0.0280
     15 H           3.6093    0.4233    1.6776 H       1  UNL1        0.0280
     16 H           4.0097   -0.3598    0.1325 H       1  UNL1        0.0280
     17 H           2.0182    2.4385   -0.7790 H       1  UNL1        0.1033
     18 H          -2.3246    1.5434   -1.4508 H       1  UNL1        0.0691
     19 H          -4.3407    0.4942   -1.4414 H       1  UNL1        0.2921
     20 H          -3.1017   -2.3145    0.3032 H       1  UNL1        0.0654
     21 H          -0.7213   -2.4779    1.0029 H       1  UNL1        0.0627
@<TRIPOS>BOND
     1     1     2    1
     2     2     3   ar
     3     3     4   ar
     4     4     5   ar
     5     5     6   ar
     6     6     7   ar
     7     7     8    1
     8     7     9   ar
     9     9    10   ar
    10    10    11   ar
    11    11    12   ar
    12    12    13    2
    13    12     2   ar
    14    11     5   ar
    15     1    14    1
    16     1    15    1
    17     1    16    1
    18     3    17    1
    19     6    18    1
    20     8    19    1
    21     9    20    1
    22    10    21    1
