@<TRIPOS>MOLECULE
*****
 26 28 0 0 0
SMALL
GASTEIGER

@<TRIPOS>ATOM
      1 C          -3.9821   -0.0555    0.4427 C.3     1  UNL1       -0.0389
      2 C          -2.6170    0.5428    0.5519 C.ar    1  UNL1       -0.0399
      3 C          -2.3492    1.7361    1.1923 C.ar    1  UNL1       -0.0206
      4 S          -0.6987    2.1488    1.1594 S.2     1  UNL1       -0.0961
      5 C          -0.2930    0.7311    0.2875 C.ar    1  UNL1        0.0246
      6 C           1.1091    0.5055   -0.0484 C.ar    1  UNL1        0.0171
      7 C           1.8394    1.3574   -0.9077 C.ar    1  UNL1       -0.0513
      8 C           3.1976    1.1456   -1.2409 C.ar    1  UNL1       -0.0590
      9 C           3.9469    0.0649   -0.7466 C.ar    1  UNL1       -0.0335
     10 C           3.2690   -0.8261    0.1206 C.ar    1  UNL1        0.1005
     11 N           3.8068   -1.9141    0.6930 N.ar    1  UNL1       -0.1908
     12 S           2.6084   -2.6003    1.6130 S.2     1  UNL1        0.1165
     13 N           1.3520   -1.5608    1.3175 N.ar    1  UNL1       -0.1901
     14 C           1.8159   -0.6106    0.4847 C.ar    1  UNL1        0.1080
     15 C          -1.4112   -0.0451    0.0067 C.ar    1  UNL1       -0.0327
     16 C          -1.3867   -1.3388   -0.7496 C.3     1  UNL1       -0.0384
     17 H          -4.3208   -0.0394   -0.5982 H       1  UNL1        0.0278
     18 H          -3.9757   -1.0926    0.7931 H       1  UNL1        0.0278
     19 H          -4.7102    0.4976    1.0451 H       1  UNL1        0.0278
     20 H          -3.0533    2.3905    1.6879 H       1  UNL1        0.0696
     21 H           1.3348    2.2220   -1.3418 H       1  UNL1        0.0624
     22 H           3.6846    1.8541   -1.9117 H       1  UNL1        0.0618
     23 H           4.9872   -0.0850   -1.0097 H       1  UNL1        0.0640
     24 H          -1.3483   -2.1812   -0.0518 H       1  UNL1        0.0278
     25 H          -0.5232   -1.4014   -1.4190 H       1  UNL1        0.0278
     26 H          -2.2823   -1.4458   -1.3700 H       1  UNL1        0.0278
@<TRIPOS>BOND
     1     1     2    1
     2     2     3   ar
     3     3     4   ar
     4     4     5   ar
     5     5     6    1
     6     6     7   ar
     7     7     8   ar
     8     8     9   ar
     9     9    10   ar
    10    10    11   ar
    11    11    12   ar
    12    12    13   ar
    13    13    14   ar
    14     5    15   ar
    15    15    16    1
    16    15     2   ar
    17    14     6   ar
    18    14    10   ar
    19     1    17    1
    20     1    18    1
    21     1    19    1
    22     3    20    1
    23     7    21    1
    24     8    22    1
    25     9    23    1
    26    16    24    1
    27    16    25    1
    28    16    26    1
