@<TRIPOS>MOLECULE
*****
 17 18 0 0 0
SMALL
GASTEIGER

@<TRIPOS>ATOM
      1 C           3.2744   -0.1021    0.0478 C.3     1  UNL1        0.0122
      2 C           1.8082    0.0662    0.0631 C.ar    1  UNL1        0.1936
      3 N           1.1030    1.1390    0.3674 N.ar    1  UNL1       -0.2135
      4 C          -0.1959    0.7241    0.2121 C.ar    1  UNL1        0.1095
      5 C          -1.4088    1.4027    0.3861 C.ar    1  UNL1       -0.0326
      6 C          -2.6003    0.7000    0.1473 C.ar    1  UNL1       -0.0595
      7 C          -2.5818   -0.6424   -0.2541 C.ar    1  UNL1       -0.0582
      8 C          -1.3770   -1.3340   -0.4323 C.ar    1  UNL1       -0.0172
      9 C          -0.2215   -0.6029   -0.1858 C.ar    1  UNL1        0.1553
     10 O           1.0692   -1.0344   -0.2840 O.2     1  UNL1       -0.4400
     11 H           3.7730    0.8274    0.3380 H       1  UNL1        0.0324
     12 H           3.6177   -0.3771   -0.9538 H       1  UNL1        0.0324
     13 H           3.5770   -0.8864    0.7479 H       1  UNL1        0.0324
     14 H          -1.4185    2.4412    0.6968 H       1  UNL1        0.0640
     15 H          -3.5536    1.2088    0.2767 H       1  UNL1        0.0618
     16 H          -3.5233   -1.1595   -0.4314 H       1  UNL1        0.0619
     17 H          -1.3418   -2.3706   -0.7417 H       1  UNL1        0.0655
@<TRIPOS>BOND
     1     1     2    1
     2     2     3   ar
     3     3     4   ar
     4     4     5   ar
     5     5     6   ar
     6     6     7   ar
     7     7     8   ar
     8     8     9   ar
     9     9    10   ar
    10    10     2   ar
    11     9     4   ar
    12     1    11    1
    13     1    12    1
    14     1    13    1
    15     5    14    1
    16     6    15    1
    17     7    16    1
    18     8    17    1
