@<TRIPOS>MOLECULE
*****
 42 43 0 0 0
SMALL
GASTEIGER

@<TRIPOS>ATOM
      1 C          -1.5552   -0.4830   -3.3478 C.3     1  UNL1       -0.0240
      2 C          -0.6314   -0.6462   -2.1894 C.2     1  UNL1        0.0464
      3 N           0.4738    0.0160   -2.0565 N.2     1  UNL1       -0.1785
      4 N           1.0516   -0.4309   -0.8745 N.am    1  UNL1       -0.1249
      5 C           2.2821    0.1134   -0.4441 C.ar    1  UNL1        0.2452
      6 N           2.8244   -0.3251    0.7053 N.ar    1  UNL1       -0.2179
      7 C           3.9970    0.2074    1.0999 C.ar    1  UNL1        0.0436
      8 C           4.5815   -0.2975    2.3841 C.3     1  UNL1       -0.0222
      9 C           4.6496    1.1760    0.3687 C.ar    1  UNL1       -0.0194
     10 C           4.0370    1.5780   -0.7984 C.ar    1  UNL1        0.0436
     11 C           4.6669    2.6272   -1.6632 C.3     1  UNL1       -0.0222
     12 N           2.8646    1.0596   -1.2117 N.ar    1  UNL1       -0.2179
     13 C           0.3158   -1.4084   -0.2041 C.2     1  UNL1        0.2505
     14 O           0.5197   -2.0103    0.8378 O.2     1  UNL1       -0.2727
     15 C          -0.9030   -1.6137   -1.0723 C.3     1  UNL1        0.0773
     16 C          -2.2176   -1.3706   -0.3309 C.3     1  UNL1       -0.0364
     17 C          -2.3503    0.0325    0.2837 C.3     1  UNL1       -0.0497
     18 C          -3.6807    0.3058    1.0135 C.3     1  UNL1       -0.0467
     19 C          -4.8845    0.2462    0.0732 C.3     1  UNL1       -0.0627
     20 C          -3.8907   -0.6197    2.2118 C.3     1  UNL1       -0.0627
     21 H          -2.4874   -0.0220   -3.0123 H       1  UNL1        0.0290
     22 H          -1.7737   -1.4630   -3.7797 H       1  UNL1        0.0290
     23 H          -1.0980    0.1519   -4.1114 H       1  UNL1        0.0290
     24 H           3.9336   -1.0552    2.8366 H       1  UNL1        0.0293
     25 H           5.5604   -0.7516    2.2014 H       1  UNL1        0.0293
     26 H           4.6936    0.5245    3.0980 H       1  UNL1        0.0293
     27 H           5.5918    1.5981    0.6937 H       1  UNL1        0.0653
     28 H           4.0540    2.8226   -2.5491 H       1  UNL1        0.0293
     29 H           5.6551    2.2977   -1.9991 H       1  UNL1        0.0293
     30 H           4.7698    3.5641   -1.1069 H       1  UNL1        0.0293
     31 H          -0.8725   -2.6292   -1.4826 H       1  UNL1        0.0456
     32 H          -3.0450   -1.5439   -1.0277 H       1  UNL1        0.0276
     33 H          -2.3074   -2.1213    0.4627 H       1  UNL1        0.0276
     34 H          -1.5313    0.1962    0.9951 H       1  UNL1        0.0268
     35 H          -2.2304    0.7891   -0.5014 H       1  UNL1        0.0268
     36 H          -3.6217    1.3317    1.4012 H       1  UNL1        0.0295
     37 H          -5.0750   -0.7713   -0.2821 H       1  UNL1        0.0232
     38 H          -4.7313    0.8911   -0.7984 H       1  UNL1        0.0232
     39 H          -5.7888    0.5902    0.5872 H       1  UNL1        0.0232
     40 H          -3.0235   -0.5960    2.8798 H       1  UNL1        0.0232
     41 H          -4.7657   -0.3042    2.7904 H       1  UNL1        0.0232
     42 H          -4.0572   -1.6563    1.9022 H       1  UNL1        0.0232
@<TRIPOS>BOND
     1     1     2    1
     2     2     3    2
     3     3     4    1
     4     4     5    1
     5     5     6   ar
     6     6     7   ar
     7     7     8    1
     8     7     9   ar
     9     9    10   ar
    10    10    11    1
    11    10    12   ar
    12     4    13   am
    13    13    14    2
    14    13    15    1
    15    15    16    1
    16    16    17    1
    17    17    18    1
    18    18    19    1
    19    18    20    1
    20    15     2    1
    21    12     5   ar
    22     1    21    1
    23     1    22    1
    24     1    23    1
    25     8    24    1
    26     8    25    1
    27     8    26    1
    28     9    27    1
    29    11    28    1
    30    11    29    1
    31    11    30    1
    32    15    31    1
    33    16    32    1
    34    16    33    1
    35    17    34    1
    36    17    35    1
    37    18    36    1
    38    19    37    1
    39    19    38    1
    40    19    39    1
    41    20    40    1
    42    20    41    1
    43    20    42    1
