@<TRIPOS>MOLECULE
*****
 41 44 0 0 0
SMALL
GASTEIGER

@<TRIPOS>ATOM
      1 C           1.3112    0.3788   -1.0176 C.3     1  UNL1       -0.0214
      2 C           1.5198   -0.5149    0.1545 C.ar    1  UNL1        0.0559
      3 C           0.6099   -0.9141    1.1320 C.ar    1  UNL1        0.1000
      4 C          -0.7508   -0.4721    1.3967 C.2     1  UNL1        0.3477
      5 O          -1.4690   -1.0335    2.2165 O.2     1  UNL1       -0.2444
      6 O          -1.1039    0.6456    0.6485 O.3     1  UNL1       -0.4217
      7 C          -2.4151    1.0887    0.8755 C.ar    1  UNL1        0.1396
      8 C          -2.6336    1.9533    1.9502 C.ar    1  UNL1       -0.0186
      9 C          -3.9143    2.4424    2.1783 C.ar    1  UNL1       -0.0577
     10 C          -4.9605    2.0795    1.3267 C.ar    1  UNL1       -0.0538
     11 C          -4.7433    1.2266    0.2294 C.ar    1  UNL1       -0.0144
     12 C          -5.7970    0.8748   -0.6302 C.ar    1  UNL1       -0.0539
     13 C          -5.5805    0.0351   -1.7234 C.ar    1  UNL1       -0.0612
     14 C          -4.3074   -0.4645   -1.9732 C.ar    1  UNL1       -0.0611
     15 C          -3.2491   -0.1264   -1.1284 C.ar    1  UNL1       -0.0505
     16 C          -3.4462    0.7186   -0.0149 C.ar    1  UNL1        0.0245
     17 C           1.2798   -1.9335    1.8294 C.ar    1  UNL1        0.0641
     18 N           2.5101   -2.1479    1.3771 N.ar    1  UNL1       -0.1737
     19 N           2.7128   -1.1855    0.4374 N.ar    1  UNL1       -0.2362
     20 C           4.0309   -1.0035   -0.0849 C.ar    1  UNL1        0.0657
     21 C           4.9796   -2.0252    0.0968 C.ar    1  UNL1       -0.0363
     22 C           6.2804   -1.8850   -0.3927 C.ar    1  UNL1       -0.0598
     23 C           6.6535   -0.7187   -1.0542 C.ar    1  UNL1       -0.0616
     24 C           5.7302    0.3118   -1.2159 C.ar    1  UNL1       -0.0598
     25 C           4.4255    0.1756   -0.7287 C.ar    1  UNL1       -0.0363
     26 H           1.4977    1.4224   -0.7479 H       1  UNL1        0.0293
     27 H           0.2839    0.3036   -1.3876 H       1  UNL1        0.0293
     28 H           1.9442    0.0997   -1.8648 H       1  UNL1        0.0293
     29 H          -1.8172    2.2359    2.6078 H       1  UNL1        0.0654
     30 H          -4.1032    3.1058    3.0182 H       1  UNL1        0.0619
     31 H          -5.9556    2.4732    1.5252 H       1  UNL1        0.0624
     32 H          -6.8008    1.2553   -0.4532 H       1  UNL1        0.0624
     33 H          -6.4074   -0.2283   -2.3778 H       1  UNL1        0.0618
     34 H          -4.1365   -1.1198   -2.8234 H       1  UNL1        0.0618
     35 H          -2.2641   -0.5320   -1.3450 H       1  UNL1        0.0625
     36 H           0.9062   -2.5403    2.6461 H       1  UNL1        0.0856
     37 H           4.7151   -2.9484    0.6106 H       1  UNL1        0.0639
     38 H           7.0002   -2.6876   -0.2528 H       1  UNL1        0.0618
     39 H           7.6668   -0.6077   -1.4314 H       1  UNL1        0.0618
     40 H           6.0305    1.2323   -1.7110 H       1  UNL1        0.0618
     41 H           3.7670    1.0300   -0.8296 H       1  UNL1        0.0639
@<TRIPOS>BOND
     1     1     2    1
     2     2     3   ar
     3     3     4    1
     4     4     5    2
     5     4     6    1
     6     6     7    1
     7     7     8   ar
     8     8     9   ar
     9     9    10   ar
    10    10    11   ar
    11    11    12   ar
    12    12    13   ar
    13    13    14   ar
    14    14    15   ar
    15    15    16   ar
    16     3    17   ar
    17    17    18   ar
    18    18    19   ar
    19    19    20    1
    20    20    21   ar
    21    21    22   ar
    22    22    23   ar
    23    23    24   ar
    24    24    25   ar
    25    19     2   ar
    26    25    20   ar
    27    16     7   ar
    28    16    11   ar
    29     1    26    1
    30     1    27    1
    31     1    28    1
    32     8    29    1
    33     9    30    1
    34    10    31    1
    35    12    32    1
    36    13    33    1
    37    14    34    1
    38    15    35    1
    39    17    36    1
    40    21    37    1
    41    22    38    1
    42    23    39    1
    43    24    40    1
    44    25    41    1
