@<TRIPOS>MOLECULE
*****
 44 50 0 0 0
SMALL
GASTEIGER

@<TRIPOS>ATOM
      1 SI          6.2609   -2.3609    0.0764 Si      1  UNL1        0.0000
      2 C           7.2105   -0.7483    0.0533 C.2     1  UNL1        0.0000
      3 C           6.3707    0.2986    0.1535 C.ar    1  UNL1        0.0000
      4 C           6.7729    1.6894    0.1774 C.ar    1  UNL1        0.0000
      5 C           5.8229    2.6352    0.2929 C.ar    1  UNL1        0.0000
      6 C           4.4025    2.3021    0.3888 C.ar    1  UNL1        0.0000
      7 C           3.9369    1.0288    0.3647 C.ar    1  UNL1        0.0000
      8 C           2.5212    0.8500    0.4619 C.ar    1  UNL1        0.0000
      9 C           1.6908    1.0273    1.5613 C.ar    1  UNL1        0.0000
     10 C           0.3246    0.7561    1.2733 C.ar    1  UNL1        0.0000
     11 N          -0.7311    0.8317    2.1234 N.ar    1  UNL1        0.0000
     12 C          -1.9853    0.5364    1.6875 C.ar    1  UNL1        0.0000
     13 C          -2.2949    0.1444    0.3792 C.ar    1  UNL1        0.0000
     14 C          -1.2414    0.0592   -0.5087 C.ar    1  UNL1        0.0000
     15 O          -1.6440   -0.3250   -1.7380 O.2     1  UNL1        0.0000
     16 C          -2.9911   -0.4970   -1.6602 C.ar    1  UNL1        0.0000
     17 C          -3.7884   -0.8948   -2.7284 C.ar    1  UNL1        0.0000
     18 C          -5.1557   -1.0244   -2.4800 C.ar    1  UNL1        0.0000
     19 C          -5.7017   -0.7666   -1.2146 C.ar    1  UNL1        0.0000
     20 C          -7.0805   -0.9056   -0.9948 C.ar    1  UNL1        0.0000
     21 C          -7.6365   -0.6520    0.2599 C.ar    1  UNL1        0.0000
     22 C          -6.8228   -0.2552    1.3160 C.ar    1  UNL1        0.0000
     23 C          -5.4477   -0.1093    1.1242 C.ar    1  UNL1        0.0000
     24 C          -4.8650   -0.3606   -0.1367 C.ar    1  UNL1        0.0000
     25 C          -3.4609   -0.2226   -0.3740 C.ar    1  UNL1        0.0000
     26 C           0.1791    0.3871   -0.0387 C.ar    1  UNL1        0.0000
     27 S           1.6060    0.3577   -0.9221 S.2     1  UNL1        0.0000
     28 C           4.9311   -0.0485    0.2520 C.ar    1  UNL1        0.0000
     29 C           4.6806   -1.3742    0.2376 C.2     1  UNL1        0.0000
     30 H           6.3517   -3.0866   -1.2135 H       1  UNL1        0.0000
     31 H           6.5528   -3.1673    1.2861 H       1  UNL1        0.0000
     32 H           8.2852   -0.7243   -0.0262 H       1  UNL1        0.0000
     33 H           7.8233    1.9468    0.1047 H       1  UNL1        0.0000
     34 H           6.0913    3.6871    0.3137 H       1  UNL1        0.0000
     35 H           3.7240    3.1482    0.4693 H       1  UNL1        0.0000
     36 H           2.0502    1.3338    2.5352 H       1  UNL1        0.0000
     37 H          -2.7478    0.6310    2.4534 H       1  UNL1        0.0000
     38 H          -3.3621   -1.0929   -3.7049 H       1  UNL1        0.0000
     39 H          -5.8007   -1.3346   -3.3008 H       1  UNL1        0.0000
     40 H          -7.7393   -1.2147   -1.8039 H       1  UNL1        0.0000
     41 H          -8.7072   -0.7651    0.4112 H       1  UNL1        0.0000
     42 H          -7.2587   -0.0583    2.2924 H       1  UNL1        0.0000
     43 H          -4.8486    0.2015    1.9718 H       1  UNL1        0.0000
     44 H           3.7221   -1.8635    0.3036 H       1  UNL1        0.0000
@<TRIPOS>BOND
     1     1     2    1
     2     2     3    2
     3     3     4   ar
     4     4     5   ar
     5     5     6   ar
     6     6     7   ar
     7     7     8    1
     8     8     9   ar
     9     9    10   ar
    10    10    11   ar
    11    11    12   ar
    12    12    13   ar
    13    13    14   ar
    14    14    15   ar
    15    15    16   ar
    16    16    17   ar
    17    17    18   ar
    18    18    19   ar
    19    19    20   ar
    20    20    21   ar
    21    21    22   ar
    22    22    23   ar
    23    23    24   ar
    24    24    25   ar
    25    14    26   ar
    26    26    27   ar
    27     7    28   ar
    28    28    29    2
    29    29     1    1
    30    28     3   ar
    31    27     8   ar
    32    26    10   ar
    33    25    13   ar
    34    25    16   ar
    35    24    19   ar
    36     1    30    1
    37     1    31    1
    38     2    32    1
    39     4    33    1
    40     5    34    1
    41     6    35    1
    42     9    36    1
    43    12    37    1
    44    17    38    1
    45    18    39    1
    46    20    40    1
    47    21    41    1
    48    22    42    1
    49    23    43    1
    50    29    44    1
