@<TRIPOS>MOLECULE
*****
 34 36 0 0 0
SMALL
GASTEIGER

@<TRIPOS>ATOM
      1 C           0.2161   -2.4201    1.0682 C.3     1  UNL1       -0.0235
      2 C          -0.7147   -1.3548    0.5873 C.ar    1  UNL1        0.0273
      3 C          -1.9312   -0.9518    1.1271 C.ar    1  UNL1        0.0423
      4 C          -2.5714   -1.4986    2.3152 C.2     1  UNL1        0.1525
      5 O          -2.1020   -2.3883    3.0196 O.2     1  UNL1       -0.2956
      6 C          -2.4386    0.1019    0.3038 C.ar    1  UNL1        0.0103
      7 C          -3.6127    0.8883    0.3360 C.ar    1  UNL1       -0.0519
      8 C          -3.8227    1.8703   -0.6366 C.ar    1  UNL1       -0.0611
      9 C          -2.8821    2.0818   -1.6361 C.ar    1  UNL1       -0.0598
     10 C          -1.7114    1.3209   -1.6906 C.ar    1  UNL1       -0.0376
     11 C          -1.5063    0.3319   -0.7107 C.ar    1  UNL1        0.0502
     12 N          -0.4562   -0.5500   -0.5082 N.ar    1  UNL1       -0.3390
     13 C           0.7332   -0.6246   -1.3591 C.3     1  UNL1        0.0486
     14 C           1.9626   -0.0418   -0.6994 C.ar    1  UNL1       -0.0276
     15 C           3.1428   -0.8010   -0.6195 C.ar    1  UNL1       -0.0542
     16 C           4.2918   -0.2666   -0.0335 C.ar    1  UNL1       -0.0261
     17 C           4.2682    1.0291    0.4662 C.ar    1  UNL1        0.1234
     18 F           5.3720    1.5406    1.0264 F       1  UNL1       -0.2055
     19 C           3.1177    1.8028    0.3888 C.ar    1  UNL1       -0.0261
     20 C           1.9674    1.2713   -0.1971 C.ar    1  UNL1       -0.0542
     21 H           0.8714   -2.7966    0.2794 H       1  UNL1        0.0292
     22 H          -0.3400   -3.2855    1.4412 H       1  UNL1        0.0292
     23 H           0.8405   -2.0337    1.8800 H       1  UNL1        0.0292
     24 H          -3.5466   -1.0525    2.5705 H       1  UNL1        0.1082
     25 H          -4.3604    0.7404    1.1101 H       1  UNL1        0.0624
     26 H          -4.7278    2.4721   -0.6082 H       1  UNL1        0.0618
     27 H          -3.0567    2.8503   -2.3858 H       1  UNL1        0.0618
     28 H          -0.9872    1.5077   -2.4770 H       1  UNL1        0.0638
     29 H           0.5406   -0.0982   -2.2986 H       1  UNL1        0.0541
     30 H           0.8704   -1.6794   -1.6224 H       1  UNL1        0.0541
     31 H           3.1754   -1.8166   -1.0087 H       1  UNL1        0.0622
     32 H           5.2035   -0.8515    0.0363 H       1  UNL1        0.0646
     33 H           3.1216    2.8131    0.7853 H       1  UNL1        0.0646
     34 H           1.0727    1.8889   -0.2499 H       1  UNL1        0.0622
@<TRIPOS>BOND
     1     1     2    1
     2     2     3   ar
     3     3     4    1
     4     4     5    2
     5     3     6   ar
     6     6     7   ar
     7     7     8   ar
     8     8     9   ar
     9     9    10   ar
    10    10    11   ar
    11    11    12   ar
    12    12    13    1
    13    13    14    1
    14    14    15   ar
    15    15    16   ar
    16    16    17   ar
    17    17    18    1
    18    17    19   ar
    19    19    20   ar
    20    12     2   ar
    21    20    14   ar
    22    11     6   ar
    23     1    21    1
    24     1    22    1
    25     1    23    1
    26     4    24    1
    27     7    25    1
    28     8    26    1
    29     9    27    1
    30    10    28    1
    31    13    29    1
    32    13    30    1
    33    15    31    1
    34    16    32    1
    35    19    33    1
    36    20    34    1
