@<TRIPOS>MOLECULE
*****
 29 30 0 0 0
SMALL
GASTEIGER

@<TRIPOS>ATOM
      1 C          -0.2358    1.8439    0.5650 C.3     1  UNL1       -0.0386
      2 C          -0.7185    0.4361    0.2894 C.ar    1  UNL1       -0.0305
      3 C           0.2024   -0.6475    0.2832 C.ar    1  UNL1        0.0208
      4 C           1.6396   -0.4676    0.4662 C.ar    1  UNL1        0.1361
      5 C           2.5947   -1.0991    1.2371 C.ar    1  UNL1       -0.0152
      6 C           3.8315   -0.4804    0.9331 C.ar    1  UNL1       -0.0126
      7 C           3.5648    0.4838   -0.0171 C.ar    1  UNL1        0.1675
      8 C           4.4188    1.4152   -0.7018 C.2     1  UNL1        0.1851
      9 O           5.6312    1.5166   -0.5305 O.2     1  UNL1       -0.2924
     10 O           2.2300    0.4905   -0.3072 O.2     1  UNL1       -0.4522
     11 C          -0.2665   -1.9587    0.0896 C.ar    1  UNL1       -0.0444
     12 C          -1.6192   -2.2125   -0.1134 C.ar    1  UNL1        0.0165
     13 C          -2.5164   -1.1413   -0.1453 C.ar    1  UNL1        0.2763
     14 N          -3.9239   -1.4725   -0.3341 N.pl3   1  UNL1        0.0799
     15 O          -4.7238   -1.0676    0.5203 O.2     1  UNL1        0.0415
     16 O          -4.2135   -2.1567   -1.3250 O.co2   1  UNL1       -0.5760
     17 C          -2.0939    0.1963    0.0126 C.ar    1  UNL1        0.0302
     18 C          -3.0753    1.3404   -0.0777 C.3     1  UNL1       -0.0330
     19 H          -0.9995    2.4350    1.0804 H       1  UNL1        0.0278
     20 H           0.6280    1.8540    1.2370 H       1  UNL1        0.0278
     21 H           0.0302    2.3401   -0.3732 H       1  UNL1        0.0278
     22 H           2.4188   -1.9040    1.9373 H       1  UNL1        0.0656
     23 H           4.8060   -0.7054    1.3460 H       1  UNL1        0.0656
     24 H           3.9066    2.0706   -1.4268 H       1  UNL1        0.1114
     25 H           0.4296   -2.7962    0.0855 H       1  UNL1        0.0627
     26 H          -1.9613   -3.2360   -0.2525 H       1  UNL1        0.0685
     27 H          -3.9110    1.1095   -0.7457 H       1  UNL1        0.0280
     28 H          -2.6084    2.2326   -0.5069 H       1  UNL1        0.0280
     29 H          -3.4653    1.5809    0.9159 H       1  UNL1        0.0280
@<TRIPOS>UNITY_ATOM_ATTR
14 1
charge 1
16 1
charge -1
@<TRIPOS>BOND
     1     1     2    1
     2     2     3   ar
     3     3     4    1
     4     4     5   ar
     5     5     6   ar
     6     6     7   ar
     7     7     8    1
     8     8     9    2
     9     7    10   ar
    10     3    11   ar
    11    11    12   ar
    12    12    13   ar
    13    13    14    1
    14    14    15    2
    15    14    16    1
    16    13    17   ar
    17    17    18    1
    18    17     2   ar
    19    10     4   ar
    20     1    19    1
    21     1    20    1
    22     1    21    1
    23     5    22    1
    24     6    23    1
    25     8    24    1
    26    11    25    1
    27    12    26    1
    28    18    27    1
    29    18    28    1
    30    18    29    1
