@<TRIPOS>MOLECULE
*****
 37 39 0 0 0
SMALL
GASTEIGER

@<TRIPOS>ATOM
      1 C           0.7244    1.7795    0.2986 C.3     1  UNL1       -0.0379
      2 C           0.7390    0.3220    0.6459 C.ar    1  UNL1       -0.0225
      3 C           1.8479   -0.5096    0.5436 C.ar    1  UNL1        0.0240
      4 C           3.2124   -0.1872    0.1165 C.ar    1  UNL1       -0.0110
      5 C           3.9834    0.7209    0.8550 C.ar    1  UNL1       -0.0535
      6 C           5.2797    1.0441    0.4485 C.ar    1  UNL1       -0.0612
      7 C           5.8154    0.4641   -0.7001 C.ar    1  UNL1       -0.0617
      8 C           5.0571   -0.4391   -1.4431 C.ar    1  UNL1       -0.0612
      9 C           3.7605   -0.7635   -1.0376 C.ar    1  UNL1       -0.0535
     10 S           1.4946   -2.1122    1.0370 S.2     1  UNL1       -0.0804
     11 C          -0.1051   -1.7100    1.4128 C.ar    1  UNL1        0.0678
     12 BR         -1.3121   -3.0029    2.1577 Br      1  UNL1       -0.0418
     13 C          -0.4193   -0.3975    1.1407 C.ar    1  UNL1        0.0614
     14 C          -1.7304    0.1932    1.3787 C.2     1  UNL1        0.2486
     15 O          -1.9171    0.9269    2.3452 O.2     1  UNL1       -0.2699
     16 N          -2.7246   -0.0876    0.4499 N.am    1  UNL1       -0.2931
     17 C          -2.5310   -0.8059   -0.8151 C.3     1  UNL1        0.0385
     18 C          -3.5510   -0.3496   -1.8635 C.3     1  UNL1        0.0635
     19 O          -4.9135   -0.5251   -1.4534 O.3     1  UNL1       -0.3767
     20 C          -5.1167   -0.4360   -0.0353 C.3     1  UNL1        0.0635
     21 C          -4.0741    0.4236    0.6833 C.3     1  UNL1        0.0385
     22 H           1.0111    2.3753    1.1709 H       1  UNL1        0.0278
     23 H           1.4178    2.0015   -0.5188 H       1  UNL1        0.0278
     24 H          -0.2701    2.1006   -0.0268 H       1  UNL1        0.0278
     25 H           3.5806    1.1757    1.7574 H       1  UNL1        0.0624
     26 H           5.8716    1.7460    1.0304 H       1  UNL1        0.0618
     27 H           6.8253    0.7146   -1.0151 H       1  UNL1        0.0618
     28 H           5.4749   -0.8922   -2.3385 H       1  UNL1        0.0618
     29 H           3.1802   -1.4665   -1.6306 H       1  UNL1        0.0624
     30 H          -1.5154   -0.6570   -1.1915 H       1  UNL1        0.0487
     31 H          -2.6732   -1.8704   -0.5992 H       1  UNL1        0.0487
     32 H          -3.4122   -0.9073   -2.7950 H       1  UNL1        0.0575
     33 H          -3.4092    0.7129   -2.0937 H       1  UNL1        0.0575
     34 H          -6.1208   -0.0329    0.1294 H       1  UNL1        0.0575
     35 H          -5.1038   -1.4576    0.3621 H       1  UNL1        0.0575
     36 H          -4.0940    1.4484    0.2945 H       1  UNL1        0.0487
     37 H          -4.2823    0.4606    1.7577 H       1  UNL1        0.0487
@<TRIPOS>BOND
     1     1     2    1
     2     2     3   ar
     3     3     4    1
     4     4     5   ar
     5     5     6   ar
     6     6     7   ar
     7     7     8   ar
     8     8     9   ar
     9     3    10   ar
    10    10    11   ar
    11    11    12    1
    12    11    13   ar
    13    13    14    1
    14    14    15    2
    15    14    16   am
    16    16    17    1
    17    17    18    1
    18    18    19    1
    19    19    20    1
    20    20    21    1
    21    13     2   ar
    22    21    16    1
    23     9     4   ar
    24     1    22    1
    25     1    23    1
    26     1    24    1
    27     5    25    1
    28     6    26    1
    29     7    27    1
    30     8    28    1
    31     9    29    1
    32    17    30    1
    33    17    31    1
    34    18    32    1
    35    18    33    1
    36    20    34    1
    37    20    35    1
    38    21    36    1
    39    21    37    1
