@<TRIPOS>MOLECULE
*****
 46 51 0 0 0
SMALL
GASTEIGER

@<TRIPOS>ATOM
      1 C           5.0626   -1.1181    2.4307 C.3     1  UNL1       -0.0375
      2 C           4.6191   -0.4655    1.1700 C.ar    1  UNL1       -0.0209
      3 C           5.3956    0.1419    0.1988 C.ar    1  UNL1        0.0305
      4 C           6.8335    0.2614    0.1654 C.ar    1  UNL1        0.0262
      5 C           7.5747    1.4235    0.0602 C.ar    1  UNL1       -0.0464
      6 C           8.9791    1.1766    0.0437 C.ar    1  UNL1       -0.0541
      7 C           9.2655   -0.1670    0.1293 C.ar    1  UNL1       -0.0237
      8 S           7.8490   -1.1199    0.2254 S.2     1  UNL1       -0.0961
      9 S           4.4724    0.8174   -1.0822 S.2     1  UNL1       -0.0866
     10 C           2.9928    0.2407   -0.3597 C.ar    1  UNL1        0.0308
     11 C           1.6026    0.2967   -0.7098 C.ar    1  UNL1       -0.0209
     12 C           1.1528    0.9811   -1.9510 C.3     1  UNL1       -0.0375
     13 C           0.8308   -0.3531    0.2367 C.ar    1  UNL1        0.0305
     14 C          -0.5988   -0.5438    0.2004 C.ar    1  UNL1        0.0268
     15 C          -1.3250   -1.1474   -0.8050 C.ar    1  UNL1       -0.0458
     16 C          -2.7256   -1.1533   -0.5339 C.ar    1  UNL1       -0.0458
     17 C          -3.0402   -0.5531    0.6708 C.ar    1  UNL1        0.0272
     18 C          -4.3546   -0.3793    1.2399 C.ar    1  UNL1        0.0388
     19 S          -4.6485   -0.5105    2.9518 S.2     1  UNL1       -0.0946
     20 C          -6.3379   -0.2061    2.7955 C.ar    1  UNL1       -0.0108
     21 C          -6.6467   -0.0224    1.4810 C.ar    1  UNL1        0.0570
     22 C          -5.5453   -0.1226    0.6095 C.ar    1  UNL1        0.0646
     23 C          -6.0208    0.1044   -0.7337 C.2     1  UNL1        0.2547
     24 O          -5.3589    0.1183   -1.7577 O.2     1  UNL1       -0.2695
     25 N          -7.3862    0.3072   -0.5974 N.am    1  UNL1       -0.2372
     26 C          -8.2490    0.6062   -1.7107 C.3     1  UNL1        0.0115
     27 C          -7.8288    0.2634    0.7129 C.2     1  UNL1        0.2541
     28 O          -8.9535    0.4333    1.1494 O.2     1  UNL1       -0.2695
     29 S          -1.6209    0.0173    1.4519 S.2     1  UNL1       -0.0872
     30 S           1.7494   -0.9974    1.5352 S.2     1  UNL1       -0.0866
     31 C           3.2293   -0.4154    0.8162 C.ar    1  UNL1        0.0308
     32 H           5.9913   -0.6752    2.8043 H       1  UNL1        0.0278
     33 H           4.3197   -1.0071    3.2271 H       1  UNL1        0.0278
     34 H           5.2315   -2.1871    2.2656 H       1  UNL1        0.0278
     35 H           7.1310    2.4104    0.0017 H       1  UNL1        0.0629
     36 H           9.7382    1.9457   -0.0296 H       1  UNL1        0.0623
     37 H          10.2387   -0.6384    0.1362 H       1  UNL1        0.0693
     38 H           1.2121    0.2961   -2.8031 H       1  UNL1        0.0278
     39 H           1.7664    1.8604   -2.1719 H       1  UNL1        0.0278
     40 H           0.1191    1.3308   -1.8646 H       1  UNL1        0.0278
     41 H          -0.8772   -1.5716   -1.6957 H       1  UNL1        0.0629
     42 H          -3.4606   -1.5851   -1.2027 H       1  UNL1        0.0629
     43 H          -6.9876   -0.1805    3.6604 H       1  UNL1        0.0701
     44 H          -7.9032    0.0813   -2.6055 H       1  UNL1        0.0434
     45 H          -8.2081    1.6837   -1.8960 H       1  UNL1        0.0434
     46 H          -9.2798    0.3219   -1.4825 H       1  UNL1        0.0434
@<TRIPOS>BOND
     1     1     2    1
     2     2     3   ar
     3     3     4    1
     4     4     5   ar
     5     5     6   ar
     6     6     7   ar
     7     7     8   ar
     8     3     9   ar
     9     9    10   ar
    10    10    11   ar
    11    11    12    1
    12    11    13   ar
    13    13    14    1
    14    14    15   ar
    15    15    16   ar
    16    16    17   ar
    17    17    18    1
    18    18    19   ar
    19    19    20   ar
    20    20    21   ar
    21    21    22   ar
    22    22    23    1
    23    23    24    2
    24    23    25   am
    25    25    26    1
    26    25    27   am
    27    27    28    2
    28    17    29   ar
    29    13    30   ar
    30    30    31   ar
    31    31     2   ar
    32     8     4   ar
    33    31    10   ar
    34    29    14   ar
    35    22    18   ar
    36    27    21    1
    37     1    32    1
    38     1    33    1
    39     1    34    1
    40     5    35    1
    41     6    36    1
    42     7    37    1
    43    12    38    1
    44    12    39    1
    45    12    40    1
    46    15    41    1
    47    16    42    1
    48    20    43    1
    49    26    44    1
    50    26    45    1
    51    26    46    1
