@<TRIPOS>MOLECULE
*****
 48 54 0 0 0
SMALL
GASTEIGER

@<TRIPOS>ATOM
      1 C          -5.1601   -2.9122    0.3153 C.3     1  UNL1       -0.0380
      2 C          -5.2974   -1.4104    0.1794 C.ar    1  UNL1       -0.0279
      3 C          -6.5670   -0.7798    0.2165 C.ar    1  UNL1       -0.0066
      4 C          -7.8881   -1.3399    0.3733 C.ar    1  UNL1       -0.0467
      5 C          -8.8884   -0.4004    0.3597 C.ar    1  UNL1       -0.0232
      6 S          -8.2715    1.1667    0.1597 S.2     1  UNL1       -0.0964
      7 C          -6.6294    0.6083    0.0866 C.ar    1  UNL1        0.0231
      8 C          -5.4702    1.4016   -0.0802 C.ar    1  UNL1       -0.0279
      9 C          -5.6072    2.9035   -0.2145 C.3     1  UNL1       -0.0380
     10 C          -4.2014    0.7690   -0.1179 C.ar    1  UNL1       -0.0060
     11 C          -2.8786    1.3259   -0.2750 C.ar    1  UNL1       -0.0384
     12 C          -1.8602    0.3956   -0.2595 C.ar    1  UNL1        0.0271
     13 C          -0.4444    0.6623   -0.4069 C.ar    1  UNL1        0.0265
     14 C           0.1279    1.7740   -0.9971 C.ar    1  UNL1       -0.0458
     15 C           1.5537    1.7431   -0.9730 C.ar    1  UNL1       -0.0462
     16 C           2.0545    0.6095   -0.3626 C.ar    1  UNL1        0.0235
     17 C           3.4418    0.2118   -0.1354 C.ar    1  UNL1        0.0350
     18 C           3.9269   -1.0954   -0.2425 C.ar    1  UNL1        0.0387
     19 N           5.2121   -1.5328   -0.0505 N.ar    1  UNL1       -0.2515
     20 C           6.2168   -0.6669    0.2937 C.ar    1  UNL1        0.1056
     21 C           7.5670   -1.1981    0.4779 C.ar    1  UNL1        0.0397
     22 C           8.7974   -0.5673    0.3794 C.ar    1  UNL1       -0.0454
     23 C           9.8973   -1.4372    0.6391 C.ar    1  UNL1       -0.0541
     24 C           9.4822   -2.7150    0.9286 C.ar    1  UNL1       -0.0237
     25 S           7.7822   -2.8598    0.8853 S.2     1  UNL1       -0.0951
     26 C           5.8832    0.7061    0.4404 C.ar    1  UNL1        0.1268
     27 N           6.6924    1.7300    0.7743 N.ar    1  UNL1       -0.1886
     28 S           5.7634    3.0967    0.8135 S.2     1  UNL1        0.1166
     29 N           4.2896    2.4755    0.3965 N.ar    1  UNL1       -0.1900
     30 C           4.4479    1.1501    0.2156 C.ar    1  UNL1        0.1116
     31 S           0.7733   -0.3964    0.1764 S.2     1  UNL1       -0.0876
     32 S          -2.5016   -1.1701   -0.0617 S.2     1  UNL1       -0.0874
     33 C          -4.1391   -0.6161    0.0121 C.ar    1  UNL1        0.0237
     34 H          -4.5477   -3.1558    1.1897 H       1  UNL1        0.0278
     35 H          -6.1221   -3.4141    0.4414 H       1  UNL1        0.0278
     36 H          -4.6893   -3.3288   -0.5813 H       1  UNL1        0.0278
     37 H          -8.0959   -2.3956    0.4920 H       1  UNL1        0.0629
     38 H          -9.9526   -0.5651    0.4583 H       1  UNL1        0.0694
     39 H          -4.6452    3.4060   -0.3371 H       1  UNL1        0.0278
     40 H          -6.0807    3.3190    0.6811 H       1  UNL1        0.0278
     41 H          -6.2171    3.1480   -1.0905 H       1  UNL1        0.0278
     42 H          -2.6897    2.3859   -0.3862 H       1  UNL1        0.0635
     43 H          -0.4429    2.5815   -1.4391 H       1  UNL1        0.0629
     44 H           2.1777    2.5253   -1.3902 H       1  UNL1        0.0629
     45 H           3.2508   -1.9053   -0.5201 H       1  UNL1        0.0837
     46 H           8.9169    0.4795    0.1264 H       1  UNL1        0.0629
     47 H          10.9378   -1.1380    0.6128 H       1  UNL1        0.0623
     48 H          10.0949   -3.5747    1.1629 H       1  UNL1        0.0693
@<TRIPOS>BOND
     1     1     2    1
     2     2     3   ar
     3     3     4   ar
     4     4     5   ar
     5     5     6   ar
     6     6     7   ar
     7     7     8   ar
     8     8     9    1
     9     8    10   ar
    10    10    11   ar
    11    11    12   ar
    12    12    13    1
    13    13    14   ar
    14    14    15   ar
    15    15    16   ar
    16    16    17    1
    17    17    18   ar
    18    18    19   ar
    19    19    20   ar
    20    20    21    1
    21    21    22   ar
    22    22    23   ar
    23    23    24   ar
    24    24    25   ar
    25    20    26   ar
    26    26    27   ar
    27    27    28   ar
    28    28    29   ar
    29    29    30   ar
    30    16    31   ar
    31    12    32   ar
    32    32    33   ar
    33    33     2   ar
    34     7     3   ar
    35    33    10   ar
    36    31    13   ar
    37    30    17   ar
    38    25    21   ar
    39    30    26   ar
    40     1    34    1
    41     1    35    1
    42     1    36    1
    43     4    37    1
    44     5    38    1
    45     9    39    1
    46     9    40    1
    47     9    41    1
    48    11    42    1
    49    14    43    1
    50    15    44    1
    51    18    45    1
    52    22    46    1
    53    23    47    1
    54    24    48    1
