@<TRIPOS>MOLECULE
*****
 41 43 0 0 0
SMALL
GASTEIGER

@<TRIPOS>ATOM
      1 C          -2.9570   -0.9532   -0.1726 C.3     1  UNL1       -0.0238
      2 C          -2.3956    0.4317    0.0634 C.ar    1  UNL1        0.0246
      3 C          -3.1398    1.3085    0.7627 C.ar    1  UNL1        0.0046
      4 C          -2.6284    2.6719    0.9971 C.ar    1  UNL1        0.1823
      5 O          -3.2588    3.4799    1.6686 O.2     1  UNL1       -0.2878
      6 C          -1.3418    3.0326    0.3730 C.ar    1  UNL1        0.0046
      7 C          -0.6523    2.1017   -0.3127 C.ar    1  UNL1        0.0246
      8 C           0.6398    2.5166   -0.9761 C.3     1  UNL1       -0.0238
      9 N          -1.1104    0.7679   -0.4275 N.ar    1  UNL1       -0.3157
     10 C          -0.3878   -0.1713   -1.2417 C.ar    1  UNL1        0.0675
     11 C          -0.7738   -0.2425   -2.6057 C.ar    1  UNL1       -0.0360
     12 C          -0.1480   -1.1041   -3.5001 C.ar    1  UNL1       -0.0597
     13 C           0.8764   -1.9184   -3.0483 C.ar    1  UNL1       -0.0599
     14 C           1.2744   -1.8564   -1.7096 C.ar    1  UNL1       -0.0386
     15 C           0.6802   -0.9823   -0.7669 C.ar    1  UNL1        0.0540
     16 N           1.1931   -1.0448    0.5400 N.pl3   1  UNL1       -0.3239
     17 C           0.3997   -0.5990    1.6985 C.3     1  UNL1        0.0358
     18 C           1.0492   -1.1097    2.9977 C.3     1  UNL1        0.0634
     19 O           2.4110   -0.6664    3.1181 O.3     1  UNL1       -0.3767
     20 C           3.1818   -1.1466    2.0057 C.3     1  UNL1        0.0634
     21 C           2.6168   -0.6458    0.6662 C.3     1  UNL1        0.0358
     22 H          -3.1697   -1.1085   -1.2350 H       1  UNL1        0.0292
     23 H          -2.2643   -1.7290    0.1670 H       1  UNL1        0.0292
     24 H          -3.8971   -1.1102    0.3686 H       1  UNL1        0.0292
     25 H          -4.1170    1.0829    1.1685 H       1  UNL1        0.0673
     26 H          -1.0184    4.0581    0.4918 H       1  UNL1        0.0673
     27 H           1.4832    1.9402   -0.5900 H       1  UNL1        0.0292
     28 H           0.8702    3.5735   -0.7996 H       1  UNL1        0.0292
     29 H           0.5820    2.3811   -2.0608 H       1  UNL1        0.0292
     30 H          -1.5802    0.3950   -2.9631 H       1  UNL1        0.0639
     31 H          -0.4654   -1.1420   -4.5382 H       1  UNL1        0.0618
     32 H           1.3665   -2.6107   -3.7275 H       1  UNL1        0.0618
     33 H           2.0590   -2.5369   -1.3835 H       1  UNL1        0.0637
     34 H           0.3727    0.4942    1.7399 H       1  UNL1        0.0486
     35 H          -0.6148   -1.0016    1.6588 H       1  UNL1        0.0486
     36 H           0.4989   -0.7259    3.8626 H       1  UNL1        0.0575
     37 H           1.0262   -2.2051    3.0455 H       1  UNL1        0.0575
     38 H           4.2071   -0.7855    2.1338 H       1  UNL1        0.0575
     39 H           3.2068   -2.2426    2.0363 H       1  UNL1        0.0575
     40 H           2.6854    0.4478    0.6356 H       1  UNL1        0.0486
     41 H           3.2401   -1.0453   -0.1405 H       1  UNL1        0.0486
@<TRIPOS>BOND
     1     1     2    1
     2     2     3   ar
     3     3     4   ar
     4     4     5    2
     5     4     6   ar
     6     6     7   ar
     7     7     8    1
     8     7     9   ar
     9     9    10    1
    10    10    11   ar
    11    11    12   ar
    12    12    13   ar
    13    13    14   ar
    14    14    15   ar
    15    15    16    1
    16    16    17    1
    17    17    18    1
    18    18    19    1
    19    19    20    1
    20    20    21    1
    21     9     2   ar
    22    15    10   ar
    23    21    16    1
    24     1    22    1
    25     1    23    1
    26     1    24    1
    27     3    25    1
    28     6    26    1
    29     8    27    1
    30     8    28    1
    31     8    29    1
    32    11    30    1
    33    12    31    1
    34    13    32    1
    35    14    33    1
    36    17    34    1
    37    17    35    1
    38    18    36    1
    39    18    37    1
    40    20    38    1
    41    20    39    1
    42    21    40    1
    43    21    41    1
