@<TRIPOS>MOLECULE
*****
 28 30 0 0 0
SMALL
GASTEIGER

@<TRIPOS>ATOM
      1 C           3.9607    0.8334    1.6710 C.3     1  UNL1       -0.0383
      2 C           2.6521    0.3909    1.0726 C.ar    1  UNL1       -0.0260
      3 C           2.5347   -0.8133    0.5044 C.ar    1  UNL1        0.0075
      4 C           1.2625   -1.2840   -0.0952 C.ar    1  UNL1        0.2565
      5 O           1.3104   -2.4128   -0.5791 O.2     1  UNL1       -0.2673
      6 N           0.1657   -0.3985   -0.0418 N.ar    1  UNL1       -0.2757
      7 C           0.3148    0.8790    0.5685 C.ar    1  UNL1        0.0676
      8 C          -0.8550    1.7560    0.5958 C.ar    1  UNL1       -0.0358
      9 C          -2.0397    1.4195    0.0824 C.ar    1  UNL1       -0.0506
     10 C          -2.2075    0.1169   -0.5448 C.ar    1  UNL1       -0.0010
     11 C          -3.4682   -0.2066   -1.0759 C.ar    1  UNL1       -0.0526
     12 C          -3.6810   -1.4369   -1.6849 C.ar    1  UNL1       -0.0611
     13 C          -2.6349   -2.3438   -1.7635 C.ar    1  UNL1       -0.0598
     14 C          -1.3767   -2.0231   -1.2344 C.ar    1  UNL1       -0.0372
     15 C          -1.1263   -0.7882   -0.6117 C.ar    1  UNL1        0.0572
     16 C           1.4960    1.2748    1.1071 C.ar    1  UNL1        0.0787
     17 C           1.6513    2.5599    1.7226 C.1     1  UNL1        0.1015
     18 N           1.7820    3.5995    2.2221 N.1     1  UNL1       -0.1908
     19 H           4.7354    0.0648    1.5699 H       1  UNL1        0.0278
     20 H           4.3329    1.7342    1.1711 H       1  UNL1        0.0278
     21 H           3.8497    1.0407    2.7408 H       1  UNL1        0.0278
     22 H           3.3590   -1.5162    0.4477 H       1  UNL1        0.0675
     23 H          -0.7808    2.7399    1.0533 H       1  UNL1        0.0639
     24 H          -2.8814    2.1025    0.1250 H       1  UNL1        0.0625
     25 H          -4.2928    0.5001   -1.0175 H       1  UNL1        0.0624
     26 H          -4.6557   -1.6863   -2.0952 H       1  UNL1        0.0618
     27 H          -2.7866   -3.3110   -2.2375 H       1  UNL1        0.0618
     28 H          -0.6205   -2.7913   -1.3410 H       1  UNL1        0.0638
@<TRIPOS>BOND
     1     1     2    1
     2     2     3   ar
     3     3     4   ar
     4     4     5    2
     5     4     6   ar
     6     6     7   ar
     7     7     8   ar
     8     8     9   ar
     9     9    10   ar
    10    10    11   ar
    11    11    12   ar
    12    12    13   ar
    13    13    14   ar
    14    14    15   ar
    15     7    16   ar
    16    16    17    1
    17    17    18    3
    18    16     2   ar
    19    15     6   ar
    20    15    10   ar
    21     1    19    1
    22     1    20    1
    23     1    21    1
    24     3    22    1
    25     8    23    1
    26     9    24    1
    27    11    25    1
    28    12    26    1
    29    13    27    1
    30    14    28    1
