@<TRIPOS>MOLECULE
*****
 28 29 0 0 0
SMALL
GASTEIGER

@<TRIPOS>ATOM
      1 C          -3.8321   -1.1632   -0.8927 C.3     1  UNL1       -0.0242
      2 C          -2.8172   -0.6659    0.0890 C.ar    1  UNL1        0.0201
      3 C          -2.9945    0.4390    0.8271 C.ar    1  UNL1        0.0237
      4 C          -1.9196    0.8609    1.7726 C.ar    1  UNL1        0.2741
      5 O          -2.0793    1.8986    2.4070 O.2     1  UNL1       -0.2658
      6 N          -0.7920    0.0766    1.8874 N.ar    1  UNL1       -0.1852
      7 C          -0.7020   -0.9654    1.1314 C.ar    1  UNL1        0.1704
      8 S           0.7039   -1.9972    1.2175 S.3     1  UNL1       -0.0831
      9 C           2.0083   -0.7463    1.3955 C.3     1  UNL1        0.0263
     10 C           2.2247    0.0530    0.1335 C.ar    1  UNL1       -0.0344
     11 C           1.7583    1.3743    0.0367 C.ar    1  UNL1       -0.0576
     12 C           1.9442    2.1134   -1.1348 C.ar    1  UNL1       -0.0588
     13 C           2.5985    1.5396   -2.2226 C.ar    1  UNL1       -0.0264
     14 C           3.0608    0.2326   -2.1300 C.ar    1  UNL1        0.1237
     15 F           3.6870   -0.3207   -3.1770 F       1  UNL1       -0.2055
     16 C           2.8818   -0.5128   -0.9688 C.ar    1  UNL1       -0.0225
     17 N          -1.6515   -1.3696    0.2437 N.ar    1  UNL1       -0.3381
     18 H          -3.4030   -1.1968   -1.8995 H       1  UNL1        0.0292
     19 H          -4.7177   -0.5199   -0.9269 H       1  UNL1        0.0292
     20 H          -4.1608   -2.1722   -0.6226 H       1  UNL1        0.0292
     21 H          -3.8739    1.0666    0.7817 H       1  UNL1        0.0689
     22 H           2.9410   -1.2669    1.6431 H       1  UNL1        0.0429
     23 H           1.7999   -0.0916    2.2488 H       1  UNL1        0.0429
     24 H           1.2416    1.8373    0.8774 H       1  UNL1        0.0621
     25 H           1.5779    3.1354   -1.1947 H       1  UNL1        0.0619
     26 H           2.7509    2.1009   -3.1385 H       1  UNL1        0.0646
     27 H           3.2556   -1.5323   -0.9359 H       1  UNL1        0.0649
     28 H          -1.4909   -2.2074   -0.3010 H       1  UNL1        0.1675
@<TRIPOS>BOND
     1     1     2    1
     2     2     3   ar
     3     3     4   ar
     4     4     5    2
     5     4     6   ar
     6     6     7   ar
     7     7     8    1
     8     8     9    1
     9     9    10    1
    10    10    11   ar
    11    11    12   ar
    12    12    13   ar
    13    13    14   ar
    14    14    15    1
    15    14    16   ar
    16     7    17   ar
    17    17     2   ar
    18    16    10   ar
    19     1    18    1
    20     1    19    1
    21     1    20    1
    22     3    21    1
    23     9    22    1
    24     9    23    1
    25    11    24    1
    26    12    25    1
    27    13    26    1
    28    16    27    1
    29    17    28    1
