@<TRIPOS>MOLECULE
*****
 41 44 0 0 0
SMALL
GASTEIGER

@<TRIPOS>ATOM
      1 C          -5.3691   -0.0663    1.7807 C.3     1  UNL1       -0.0242
      2 C          -3.9850   -0.3035    1.2971 C.ar    1  UNL1        0.0169
      3 C          -3.1587   -1.3864    1.5072 C.ar    1  UNL1       -0.0304
      4 C          -1.9292   -1.1730    0.8079 C.ar    1  UNL1        0.0389
      5 C          -0.8021   -2.1243    0.8233 C.2     1  UNL1        0.1751
      6 O          -0.9888   -3.2691    1.2394 O.2     1  UNL1       -0.2911
      7 C           0.5531   -1.6652    0.3154 C.3     1  UNL1        0.0657
      8 S           1.9139   -2.6743    0.9711 S.3     1  UNL1       -0.0592
      9 C           3.2538   -1.9338    0.1460 C.ar    1  UNL1        0.2584
     10 N           3.1403   -0.8688   -0.6277 N.ar    1  UNL1       -0.2033
     11 C           4.4220   -0.6420   -1.0615 C.ar    1  UNL1        0.1104
     12 C           4.9499    0.3421   -1.9067 C.ar    1  UNL1       -0.0326
     13 C           6.3284    0.3161   -2.1702 C.ar    1  UNL1       -0.0595
     14 C           7.1562   -0.6630   -1.6050 C.ar    1  UNL1       -0.0582
     15 C           6.6424   -1.6522   -0.7576 C.ar    1  UNL1       -0.0171
     16 C           5.2744   -1.5910   -0.5237 C.ar    1  UNL1        0.1562
     17 O           4.5298   -2.4245    0.2549 O.2     1  UNL1       -0.4307
     18 C          -2.0685    0.0427    0.1344 C.ar    1  UNL1        0.0266
     19 C          -1.1814    0.7376   -0.8422 C.3     1  UNL1       -0.0236
     20 N          -3.2769    0.5799    0.5272 N.ar    1  UNL1       -0.3445
     21 C          -3.7901    1.9091    0.1064 C.3     1  UNL1        0.0346
     22 C          -3.0060    3.1861    0.3171 C.3     1  UNL1       -0.0302
     23 C          -4.2567    2.9484    1.1018 C.3     1  UNL1       -0.0302
     24 H          -5.8216   -1.0012    2.1288 H       1  UNL1        0.0292
     25 H          -5.3704    0.6367    2.6190 H       1  UNL1        0.0292
     26 H          -6.0068    0.3300    0.9839 H       1  UNL1        0.0292
     27 H          -3.4026   -2.2605    2.1010 H       1  UNL1        0.0642
     28 H           0.7253   -0.6335    0.6338 H       1  UNL1        0.0462
     29 H           0.5468   -1.7336   -0.7763 H       1  UNL1        0.0462
     30 H           4.3082    1.1002   -2.3419 H       1  UNL1        0.0640
     31 H           6.7607    1.0719   -2.8237 H       1  UNL1        0.0618
     32 H           8.2221   -0.6551   -1.8283 H       1  UNL1        0.0619
     33 H           7.2661   -2.4147   -0.3084 H       1  UNL1        0.0655
     34 H          -0.6835    0.0187   -1.4982 H       1  UNL1        0.0292
     35 H          -0.4196    1.3216   -0.3178 H       1  UNL1        0.0292
     36 H          -1.7378    1.4091   -1.5031 H       1  UNL1        0.0292
     37 H          -4.3584    1.8363   -0.8170 H       1  UNL1        0.0528
     38 H          -2.0653    3.1412    0.8545 H       1  UNL1        0.0286
     39 H          -3.0320    3.9317   -0.4685 H       1  UNL1        0.0286
     40 H          -4.1465    2.7468    2.1615 H       1  UNL1        0.0286
     41 H          -5.1365    3.5296    0.8504 H       1  UNL1        0.0286
@<TRIPOS>BOND
     1     1     2    1
     2     2     3   ar
     3     3     4   ar
     4     4     5    1
     5     5     6    2
     6     5     7    1
     7     7     8    1
     8     8     9    1
     9     9    10   ar
    10    10    11   ar
    11    11    12   ar
    12    12    13   ar
    13    13    14   ar
    14    14    15   ar
    15    15    16   ar
    16    16    17   ar
    17     4    18   ar
    18    18    19    1
    19    18    20   ar
    20    20    21    1
    21    21    22    1
    22    22    23    1
    23    20     2   ar
    24    23    21    1
    25    17     9   ar
    26    16    11   ar
    27     1    24    1
    28     1    25    1
    29     1    26    1
    30     3    27    1
    31     7    28    1
    32     7    29    1
    33    12    30    1
    34    13    31    1
    35    14    32    1
    36    15    33    1
    37    19    34    1
    38    19    35    1
    39    19    36    1
    40    21    37    1
    41    22    38    1
    42    22    39    1
    43    23    40    1
    44    23    41    1
