@<TRIPOS>MOLECULE
*****
 36 38 0 0 0
SMALL
GASTEIGER

@<TRIPOS>ATOM
      1 C           6.6865   -0.4221   -0.4574 C.3     1  UNL1       -0.0037
      2 C           5.2595   -0.2102   -0.1621 C.ar    1  UNL1        0.1350
      3 C           4.3886   -0.7053    0.7732 C.ar    1  UNL1        0.0125
      4 C           3.1440   -0.0753    0.4882 C.ar    1  UNL1        0.1680
      5 C           1.8987   -0.2615    1.2532 C.2     1  UNL1        0.2684
      6 O           1.9511   -0.7851    2.3690 O.2     1  UNL1       -0.2682
      7 N           0.6743    0.1534    0.7242 N.am    1  UNL1       -0.2932
      8 C           0.4318    0.5643   -0.6672 C.3     1  UNL1        0.0308
      9 C          -1.0223    0.3225   -1.1202 C.3     1  UNL1        0.0294
     10 N          -2.0161    0.9534   -0.2180 N.pl3   1  UNL1       -0.3122
     11 C          -3.2523    0.2751   -0.2866 C.ar    1  UNL1        0.1213
     12 C          -3.9735    0.2977   -1.4832 C.ar    1  UNL1       -0.0217
     13 C          -5.1904   -0.3753   -1.5752 C.ar    1  UNL1       -0.0571
     14 C          -5.6680   -1.0595   -0.4688 C.ar    1  UNL1       -0.0435
     15 C          -4.9042   -1.0344    0.6829 C.ar    1  UNL1        0.0297
     16 N          -3.7212   -0.3884    0.7924 N.ar    1  UNL1       -0.2403
     17 C          -1.5413    1.1878    1.1644 C.3     1  UNL1        0.0294
     18 C          -0.5045    0.1433    1.6012 C.3     1  UNL1        0.0308
     19 N           3.2858    0.7706   -0.5474 N.ar    1  UNL1       -0.0734
     20 O           4.6004    0.6706   -0.9572 O.2     1  UNL1       -0.3592
     21 H           7.1263   -1.1502    0.2311 H       1  UNL1        0.0309
     22 H           6.8158   -0.7972   -1.4773 H       1  UNL1        0.0309
     23 H           7.2417    0.5159   -0.3611 H       1  UNL1        0.0309
     24 H           4.5967   -1.4154    1.5603 H       1  UNL1        0.0676
     25 H           1.0930    0.0095   -1.3387 H       1  UNL1        0.0480
     26 H           0.6695    1.6322   -0.7343 H       1  UNL1        0.0480
     27 H          -1.1468    0.7183   -2.1351 H       1  UNL1        0.0480
     28 H          -1.1783   -0.7651   -1.1630 H       1  UNL1        0.0480
     29 H          -3.5998    0.8550   -2.3355 H       1  UNL1        0.0652
     30 H          -5.7579   -0.3559   -2.5006 H       1  UNL1        0.0619
     31 H          -6.6111   -1.5924   -0.4994 H       1  UNL1        0.0633
     32 H          -5.2313   -1.5493    1.5815 H       1  UNL1        0.0830
     33 H          -1.0647    2.1771    1.1747 H       1  UNL1        0.0480
     34 H          -2.3582    1.2562    1.8930 H       1  UNL1        0.0480
     35 H          -0.9261   -0.8680    1.5653 H       1  UNL1        0.0480
     36 H          -0.1957    0.3413    2.6335 H       1  UNL1        0.0480
@<TRIPOS>BOND
     1     1     2    1
     2     2     3   ar
     3     3     4   ar
     4     4     5    1
     5     5     6    2
     6     5     7   am
     7     7     8    1
     8     8     9    1
     9     9    10    1
    10    10    11    1
    11    11    12   ar
    12    12    13   ar
    13    13    14   ar
    14    14    15   ar
    15    15    16   ar
    16    10    17    1
    17    17    18    1
    18     4    19   ar
    19    19    20   ar
    20    20     2   ar
    21    18     7    1
    22    16    11   ar
    23     1    21    1
    24     1    22    1
    25     1    23    1
    26     3    24    1
    27     8    25    1
    28     8    26    1
    29     9    27    1
    30     9    28    1
    31    12    29    1
    32    13    30    1
    33    14    31    1
    34    15    32    1
    35    17    33    1
    36    17    34    1
    37    18    35    1
    38    18    36    1
