@<TRIPOS>MOLECULE
*****
 45 52 0 0 0
SMALL
GASTEIGER

@<TRIPOS>ATOM
      1 SI         -5.5466    1.7457    1.7691 Si      1  UNL1        0.0000
      2 C          -6.5541    0.2940    1.1633 C.2     1  UNL1        0.0000
      3 C          -5.8111   -0.5074    0.3774 C.ar    1  UNL1        0.0000
      4 C          -6.2968   -1.7014   -0.2826 C.ar    1  UNL1        0.0000
      5 C          -5.4520   -2.3960   -1.0658 C.ar    1  UNL1        0.0000
      6 C          -4.0608   -1.9924   -1.2545 C.ar    1  UNL1        0.0000
      7 C          -3.5167   -0.8999   -0.6637 C.ar    1  UNL1        0.0000
      8 C          -2.0814   -0.6346   -0.9118 C.ar    1  UNL1        0.0000
      9 C          -1.2015   -0.5117    0.1579 C.ar    1  UNL1        0.0000
     10 C           0.1139   -0.2780   -0.2090 C.ar    1  UNL1        0.0000
     11 O           1.1566   -0.1130    0.6632 O.2     1  UNL1        0.0000
     12 C           2.2892    0.0976   -0.0819 C.ar    1  UNL1        0.0000
     13 C           1.9184    0.0565   -1.4066 C.ar    1  UNL1        0.0000
     14 C           0.5463   -0.1803   -1.5282 C.ar    1  UNL1        0.0000
     15 C          -0.3997   -0.3315   -2.5383 C.ar    1  UNL1        0.0000
     16 N          -1.6991   -0.5630   -2.2166 N.ar    1  UNL1        0.0000
     17 C           2.9127    0.2454   -2.4047 C.ar    1  UNL1        0.0000
     18 N           2.6346    0.2159   -3.6982 N.ar    1  UNL1        0.0000
     19 S           4.1341    0.4867   -4.3956 S.2     1  UNL1        0.0000
     20 N           5.0886    0.6332   -3.0287 N.ar    1  UNL1        0.0000
     21 C           4.2811    0.4758   -1.9570 C.ar    1  UNL1        0.0000
     22 C           4.6686    0.5197   -0.5752 C.ar    1  UNL1        0.0000
     23 C           6.0391    0.7502   -0.1803 C.ar    1  UNL1        0.0000
     24 C           6.4741    0.8001    1.1608 C.ar    1  UNL1        0.0000
     25 C           5.4287    0.6016    2.0632 C.ar    1  UNL1        0.0000
     26 C           5.6333    0.6094    3.4211 C.ar    1  UNL1        0.0000
     27 S           4.1682    0.3380    4.2733 S.2     1  UNL1        0.0000
     28 C           3.2590    0.2099    2.8184 C.ar    1  UNL1        0.0000
     29 C           4.0466    0.3691    1.7010 C.ar    1  UNL1        0.0000
     30 C           3.5960    0.3164    0.3702 C.ar    1  UNL1        0.0000
     31 C          -4.4001   -0.0836    0.1841 C.ar    1  UNL1        0.0000
     32 C          -4.0834    1.0661    0.8161 C.2     1  UNL1        0.0000
     33 H          -5.3236    1.7078    3.2350 H       1  UNL1        0.0000
     34 H          -6.0256    3.0394    1.2257 H       1  UNL1        0.0000
     35 H          -7.5934    0.1759    1.4247 H       1  UNL1        0.0000
     36 H          -7.3275   -2.0090   -0.1493 H       1  UNL1        0.0000
     37 H          -5.7859   -3.2901   -1.5833 H       1  UNL1        0.0000
     38 H          -3.4629   -2.6319   -1.9006 H       1  UNL1        0.0000
     39 H          -1.5061   -0.5942    1.1913 H       1  UNL1        0.0000
     40 H          -0.1655   -0.2767   -3.5959 H       1  UNL1        0.0000
     41 H           6.7885    0.8942   -0.9615 H       1  UNL1        0.0000
     42 H           7.5079    0.9735    1.4312 H       1  UNL1        0.0000
     43 H           6.5542    0.7575    3.9684 H       1  UNL1        0.0000
     44 H           2.1969    0.0236    2.8891 H       1  UNL1        0.0000
     45 H          -3.1425    1.5916    0.8083 H       1  UNL1        0.0000
@<TRIPOS>BOND
     1     1     2    1
     2     2     3    2
     3     3     4   ar
     4     4     5   ar
     5     5     6   ar
     6     6     7   ar
     7     7     8    1
     8     8     9   ar
     9     9    10   ar
    10    10    11   ar
    11    11    12   ar
    12    12    13   ar
    13    13    14   ar
    14    14    15   ar
    15    15    16   ar
    16    13    17   ar
    17    17    18   ar
    18    18    19   ar
    19    19    20   ar
    20    20    21   ar
    21    21    22   ar
    22    22    23   ar
    23    23    24   ar
    24    24    25   ar
    25    25    26   ar
    26    26    27   ar
    27    27    28   ar
    28    28    29   ar
    29    29    30   ar
    30     7    31   ar
    31    31    32    2
    32    32     1    1
    33    31     3   ar
    34    16     8   ar
    35    21    17   ar
    36    30    22   ar
    37    14    10   ar
    38    29    25   ar
    39    30    12   ar
    40     1    33    1
    41     1    34    1
    42     2    35    1
    43     4    36    1
    44     5    37    1
    45     6    38    1
    46     9    39    1
    47    15    40    1
    48    23    41    1
    49    24    42    1
    50    26    43    1
    51    28    44    1
    52    32    45    1
