@<TRIPOS>MOLECULE
*****
 45 47 0 0 0
SMALL
GASTEIGER

@<TRIPOS>ATOM
      1 C           8.1280   -0.2672   -0.8028 C.3     1  UNL1       -0.0334
      2 C           6.6797   -0.5687   -0.6265 C.ar    1  UNL1       -0.0126
      3 C           5.8344   -0.1613    0.3843 C.ar    1  UNL1       -0.0397
      4 C           4.4867   -0.6326    0.2199 C.ar    1  UNL1        0.0441
      5 C           3.3973   -0.3634    1.1616 C.2     1  UNL1        0.2472
      6 O           3.6204   -0.3449    2.3712 O.2     1  UNL1       -0.2700
      7 N           2.1223   -0.1231    0.6531 N.am    1  UNL1       -0.2951
      8 C           1.0228    0.0205    1.6059 C.3     1  UNL1        0.0278
      9 C          -0.3548   -0.1327    0.9369 C.3     1  UNL1        0.0151
     10 N          -0.5933    0.7420   -0.2351 N.3     1  UNL1       -0.2957
     11 C          -1.5692    1.8009    0.0446 C.3     1  UNL1        0.0175
     12 C          -3.0081    1.3573    0.1135 C.2     1  UNL1       -0.0695
     13 C          -3.5024    0.1636   -0.2574 C.2     1  UNL1       -0.0573
     14 C          -4.9189   -0.2131   -0.1575 C.ar    1  UNL1       -0.0253
     15 C          -5.9554    0.6835   -0.4478 C.ar    1  UNL1       -0.0546
     16 C          -7.2902    0.2770   -0.3691 C.ar    1  UNL1       -0.0612
     17 C          -7.6016   -1.0326   -0.0097 C.ar    1  UNL1       -0.0617
     18 C          -6.5794   -1.9380    0.2658 C.ar    1  UNL1       -0.0612
     19 C          -5.2449   -1.5316    0.1863 C.ar    1  UNL1       -0.0546
     20 C           0.6603    1.3169   -0.7610 C.3     1  UNL1        0.0151
     21 C           1.8431    0.3313   -0.7145 C.3     1  UNL1        0.0278
     22 C           4.3970   -1.4444   -0.8965 C.ar    1  UNL1       -0.0120
     23 S           5.8666   -1.5521   -1.7630 S.2     1  UNL1       -0.1011
     24 H           8.7207   -1.1877   -0.7899 H       1  UNL1        0.0283
     25 H           8.4938    0.3785    0.0025 H       1  UNL1        0.0283
     26 H           8.3045    0.2496   -1.7519 H       1  UNL1        0.0283
     27 H           6.1528    0.4571    1.2166 H       1  UNL1        0.0633
     28 H           1.1127    1.0108    2.0694 H       1  UNL1        0.0477
     29 H           1.1354   -0.7258    2.4008 H       1  UNL1        0.0477
     30 H          -0.4375   -1.1656    0.5743 H       1  UNL1        0.0442
     31 H          -1.1340   -0.0213    1.7006 H       1  UNL1        0.0442
     32 H          -1.3091    2.3184    0.9774 H       1  UNL1        0.0470
     33 H          -1.5302    2.5578   -0.7504 H       1  UNL1        0.0470
     34 H          -3.6831    2.1121    0.5113 H       1  UNL1        0.0585
     35 H          -2.8391   -0.6031   -0.6511 H       1  UNL1        0.0621
     36 H          -5.7352    1.7039   -0.7505 H       1  UNL1        0.0623
     37 H          -8.0855    0.9824   -0.5951 H       1  UNL1        0.0618
     38 H          -8.6397   -1.3487    0.0500 H       1  UNL1        0.0618
     39 H          -6.8188   -2.9618    0.5408 H       1  UNL1        0.0618
     40 H          -4.4602   -2.2527    0.4032 H       1  UNL1        0.0623
     41 H           0.5007    1.6299   -1.7994 H       1  UNL1        0.0442
     42 H           0.9386    2.2124   -0.1882 H       1  UNL1        0.0442
     43 H           2.7288    0.8150   -1.1383 H       1  UNL1        0.0477
     44 H           1.6090   -0.5556   -1.3142 H       1  UNL1        0.0477
     45 H           3.5352   -1.9931   -1.2501 H       1  UNL1        0.0701
@<TRIPOS>BOND
     1     1     2    1
     2     2     3   ar
     3     3     4   ar
     4     4     5    1
     5     5     6    2
     6     5     7   am
     7     7     8    1
     8     8     9    1
     9     9    10    1
    10    10    11    1
    11    11    12    1
    12    12    13    2
    13    13    14    1
    14    14    15   ar
    15    15    16   ar
    16    16    17   ar
    17    17    18   ar
    18    18    19   ar
    19    10    20    1
    20    20    21    1
    21     4    22   ar
    22    22    23   ar
    23    23     2   ar
    24    21     7    1
    25    19    14   ar
    26     1    24    1
    27     1    25    1
    28     1    26    1
    29     3    27    1
    30     8    28    1
    31     8    29    1
    32     9    30    1
    33     9    31    1
    34    11    32    1
    35    11    33    1
    36    12    34    1
    37    13    35    1
    38    15    36    1
    39    16    37    1
    40    17    38    1
    41    18    39    1
    42    19    40    1
    43    20    41    1
    44    20    42    1
    45    21    43    1
    46    21    44    1
    47    22    45    1
