@<TRIPOS>MOLECULE
*****
 37 39 0 0 0
SMALL
GASTEIGER

@<TRIPOS>ATOM
      1 C           7.3355    1.0075    0.2641 C.3     1  UNL1       -0.0334
      2 C           6.2749   -0.0383    0.2017 C.ar    1  UNL1       -0.0126
      3 C           4.9045    0.1202    0.2694 C.ar    1  UNL1       -0.0397
      4 C           4.1832   -1.1236    0.1746 C.ar    1  UNL1        0.0443
      5 C           2.7283   -1.3607    0.2073 C.2     1  UNL1        0.2503
      6 O           2.2912   -2.5032    0.2783 O.2     1  UNL1       -0.2698
      7 N           1.9749   -0.2141    0.1352 N.am    1  UNL1       -0.2592
      8 C           0.6067   -0.1216    0.1606 C.ar    1  UNL1        0.1880
      9 N          -0.0093    1.0336    0.0461 N.ar    1  UNL1       -0.1256
     10 N          -1.3808    0.9017    0.1028 N.ar    1  UNL1       -0.1444
     11 C          -1.7546   -0.3517    0.2621 C.ar    1  UNL1        0.1068
     12 C          -3.1774   -0.8411    0.3624 C.3     1  UNL1        0.0096
     13 C          -3.9647   -0.5705   -0.9299 C.3     1  UNL1       -0.0442
     14 C          -4.4279    0.8784   -1.0791 C.3     1  UNL1       -0.0524
     15 C          -5.1789    1.3624    0.1559 C.3     1  UNL1       -0.0530
     16 C          -4.3553    1.1793    1.4253 C.3     1  UNL1       -0.0524
     17 C          -3.8912   -0.2668    1.5969 C.3     1  UNL1       -0.0442
     18 S          -0.4349   -1.4528    0.3541 S.2     1  UNL1       -0.0350
     19 C           5.0778   -2.1751    0.0532 C.ar    1  UNL1       -0.0120
     20 S           6.7102   -1.6796    0.0314 S.2     1  UNL1       -0.1011
     21 H           6.8954    2.0045    0.3702 H       1  UNL1        0.0283
     22 H           7.9961    0.8402    1.1212 H       1  UNL1        0.0283
     23 H           7.9390    1.0038   -0.6496 H       1  UNL1        0.0283
     24 H           4.4553    1.0977    0.3929 H       1  UNL1        0.0633
     25 H           2.4227    0.6793    0.0118 H       1  UNL1        0.1571
     26 H          -3.1474   -1.9322    0.4928 H       1  UNL1        0.0370
     27 H          -3.3750   -0.8573   -1.8093 H       1  UNL1        0.0272
     28 H          -4.8555   -1.2130   -0.9308 H       1  UNL1        0.0272
     29 H          -3.5682    1.5314   -1.2667 H       1  UNL1        0.0265
     30 H          -5.0787    0.9623   -1.9572 H       1  UNL1        0.0265
     31 H          -6.1212    0.8087    0.2498 H       1  UNL1        0.0265
     32 H          -5.4418    2.4195    0.0365 H       1  UNL1        0.0265
     33 H          -3.4909    1.8524    1.4036 H       1  UNL1        0.0265
     34 H          -4.9555    1.4731    2.2943 H       1  UNL1        0.0265
     35 H          -4.7758   -0.8847    1.8012 H       1  UNL1        0.0272
     36 H          -3.2500   -0.3413    2.4839 H       1  UNL1        0.0272
     37 H           4.8391   -3.2283   -0.0291 H       1  UNL1        0.0701
@<TRIPOS>BOND
     1     1     2    1
     2     2     3   ar
     3     3     4   ar
     4     4     5    1
     5     5     6    2
     6     5     7   am
     7     7     8    1
     8     8     9   ar
     9     9    10   ar
    10    10    11   ar
    11    11    12    1
    12    12    13    1
    13    13    14    1
    14    14    15    1
    15    15    16    1
    16    16    17    1
    17    11    18   ar
    18     4    19   ar
    19    19    20   ar
    20    20     2   ar
    21    18     8   ar
    22    17    12    1
    23     1    21    1
    24     1    22    1
    25     1    23    1
    26     3    24    1
    27     7    25    1
    28    12    26    1
    29    13    27    1
    30    13    28    1
    31    14    29    1
    32    14    30    1
    33    15    31    1
    34    15    32    1
    35    16    33    1
    36    16    34    1
    37    17    35    1
    38    17    36    1
    39    19    37    1
