@<TRIPOS>MOLECULE
*****
 21 21 0 0 0
SMALL
GASTEIGER

@<TRIPOS>ATOM
      1 C           3.4936   -1.0144   -0.5071 C.3     1  UNL1       -0.0333
      2 C           2.1104   -0.4769   -0.3697 C.ar    1  UNL1       -0.0107
      3 C           1.7071    0.7376    0.1386 C.ar    1  UNL1       -0.0359
      4 C           0.2791    0.9058    0.1284 C.ar    1  UNL1        0.0910
      5 C          -0.3987    2.0774    0.6491 C.2     1  UNL1        0.3392
      6 O           0.0880    3.1955    0.7220 O.2     1  UNL1       -0.2450
      7 O          -1.6202    1.8350    1.1663 O.3     1  UNL1       -0.4771
      8 C          -0.3462   -0.1783   -0.4730 C.ar    1  UNL1        0.1392
      9 S          -2.0498   -0.5102   -0.9020 S.O2    1  UNL1        0.0011
     10 C          -2.7367   -1.1823    0.5888 C.3     1  UNL1        0.0602
     11 O          -2.0431   -1.5515   -1.9107 O.2     1  UNL1       -0.1691
     12 O          -2.6410    0.7843   -1.1767 O.2     1  UNL1       -0.1691
     13 S           0.7766   -1.4088   -0.8794 S.2     1  UNL1       -0.0745
     14 H           3.7273   -1.2218   -1.5565 H       1  UNL1        0.0283
     15 H           3.6095   -1.9396    0.0670 H       1  UNL1        0.0283
     16 H           4.2311   -0.2953   -0.1356 H       1  UNL1        0.0283
     17 H           2.3967    1.4812    0.5252 H       1  UNL1        0.0634
     18 H          -1.9341    2.7292    1.4182 H       1  UNL1        0.2954
     19 H          -2.6541   -0.4591    1.3991 H       1  UNL1        0.0468
     20 H          -3.7896   -1.4049    0.4015 H       1  UNL1        0.0468
     21 H          -2.2060   -2.1029    0.8396 H       1  UNL1        0.0468
@<TRIPOS>BOND
     1     1     2    1
     2     2     3   ar
     3     3     4   ar
     4     4     5    1
     5     5     6    2
     6     5     7    1
     7     4     8   ar
     8     8     9    1
     9     9    10    1
    10     9    11    2
    11     9    12    2
    12     8    13   ar
    13    13     2   ar
    14     1    14    1
    15     1    15    1
    16     1    16    1
    17     3    17    1
    18     7    18    1
    19    10    19    1
    20    10    20    1
    21    10    21    1
