@<TRIPOS>MOLECULE
*****
 41 43 0 0 0
SMALL
GASTEIGER

@<TRIPOS>ATOM
      1 C           1.7841    2.1310    2.2859 C.3     1  UNL1       -0.0239
      2 C           0.9550    1.0270    1.7216 C.ar    1  UNL1        0.0216
      3 C          -0.4042    0.8482    1.8814 C.ar    1  UNL1       -0.0311
      4 C          -0.8044   -0.2623    1.0994 C.ar    1  UNL1        0.0244
      5 C          -2.1555   -0.7899    0.9674 C.2     1  UNL1        0.0838
      6 S          -2.5764   -1.9200    2.1306 S.2     1  UNL1       -0.0347
      7 N          -2.9544   -0.3086   -0.0675 N.am    1  UNL1       -0.3193
      8 C          -2.4779    0.6722   -1.0565 C.3     1  UNL1        0.0362
      9 C          -3.2649    0.5685   -2.3669 C.3     1  UNL1        0.0634
     10 O          -4.6744    0.7706   -2.2106 O.3     1  UNL1       -0.3767
     11 C          -5.1749    0.3990   -0.9201 C.3     1  UNL1        0.0634
     12 C          -4.3622   -0.7064   -0.2372 C.3     1  UNL1        0.0362
     13 C           0.3396   -0.7516    0.4735 C.ar    1  UNL1        0.0304
     14 C           0.4554   -1.9646   -0.3932 C.3     1  UNL1       -0.0233
     15 N           1.4244    0.0372    0.8613 N.ar    1  UNL1       -0.3170
     16 C           2.7775   -0.1289    0.4419 C.ar    1  UNL1        0.0466
     17 C           3.8148   -0.0717    1.3821 C.ar    1  UNL1       -0.0365
     18 C           5.1409   -0.2341    0.9715 C.ar    1  UNL1       -0.0414
     19 C           5.4293   -0.4493   -0.3746 C.ar    1  UNL1        0.0411
     20 CL          7.0624   -0.6461   -0.8781 Cl      1  UNL1       -0.0835
     21 C           4.4032   -0.5059   -1.3159 C.ar    1  UNL1       -0.0414
     22 C           3.0753   -0.3473   -0.9095 C.ar    1  UNL1       -0.0365
     23 H           2.5114    2.5061    1.5596 H       1  UNL1        0.0292
     24 H           1.1488    2.9781    2.5680 H       1  UNL1        0.0292
     25 H           2.3076    1.8013    3.1879 H       1  UNL1        0.0292
     26 H          -1.0517    1.4678    2.4903 H       1  UNL1        0.0642
     27 H          -1.4139    0.5347   -1.2618 H       1  UNL1        0.0486
     28 H          -2.6194    1.6623   -0.6076 H       1  UNL1        0.0486
     29 H          -2.9033    1.3113   -3.0850 H       1  UNL1        0.0575
     30 H          -3.1205   -0.4202   -2.8181 H       1  UNL1        0.0575
     31 H          -5.1843    1.3014   -0.2975 H       1  UNL1        0.0575
     32 H          -6.2139    0.0800   -1.0492 H       1  UNL1        0.0575
     33 H          -4.3577   -1.6098   -0.8582 H       1  UNL1        0.0486
     34 H          -4.8181   -0.9490    0.7262 H       1  UNL1        0.0486
     35 H          -0.3773   -2.6541   -0.2231 H       1  UNL1        0.0292
     36 H           1.3719   -2.5253   -0.1863 H       1  UNL1        0.0292
     37 H           0.4322   -1.6841   -1.4503 H       1  UNL1        0.0292
     38 H           3.6091    0.0528    2.4420 H       1  UNL1        0.0639
     39 H           5.9405   -0.2007    1.7070 H       1  UNL1        0.0633
     40 H           4.6301   -0.6650   -2.3669 H       1  UNL1        0.0633
     41 H           2.2957   -0.3547   -1.6660 H       1  UNL1        0.0639
@<TRIPOS>BOND
     1     1     2    1
     2     2     3   ar
     3     3     4   ar
     4     4     5    1
     5     5     6    2
     6     5     7    1
     7     7     8    1
     8     8     9    1
     9     9    10    1
    10    10    11    1
    11    11    12    1
    12     4    13   ar
    13    13    14    1
    14    13    15   ar
    15    15    16    1
    16    16    17   ar
    17    17    18   ar
    18    18    19   ar
    19    19    20    1
    20    19    21   ar
    21    21    22   ar
    22    15     2   ar
    23    22    16   ar
    24    12     7    1
    25     1    23    1
    26     1    24    1
    27     1    25    1
    28     3    26    1
    29     8    27    1
    30     8    28    1
    31     9    29    1
    32     9    30    1
    33    11    31    1
    34    11    32    1
    35    12    33    1
    36    12    34    1
    37    14    35    1
    38    14    36    1
    39    14    37    1
    40    17    38    1
    41    18    39    1
    42    21    40    1
    43    22    41    1
