@<TRIPOS>MOLECULE
*****
 45 46 0 0 0
SMALL
GASTEIGER

@<TRIPOS>ATOM
      1 C           2.7027   -2.4664    0.2950 C.3     1  UNL1       -0.0223
      2 C           3.1632   -1.0885    0.6656 C.ar    1  UNL1        0.0398
      3 C           4.4467   -0.8880    1.1557 C.ar    1  UNL1       -0.0364
      4 C           4.8563    0.4074    1.4899 C.ar    1  UNL1       -0.0288
      5 C           6.2477    0.6293    2.0203 C.3     1  UNL1       -0.0383
      6 C           3.9496    1.4720    1.3152 C.ar    1  UNL1        0.0864
      7 C           4.3413    2.8114    1.6476 C.1     1  UNL1        0.1021
      8 N           4.7172    3.8721    1.9334 N.1     1  UNL1       -0.1908
      9 C           2.6761    1.1873    0.8137 C.ar    1  UNL1        0.1152
     10 S           1.4521    2.4705    0.5556 S.3     1  UNL1       -0.0953
     11 C           0.0844    1.4905   -0.1456 C.3     1  UNL1        0.0764
     12 C          -1.1336    2.3447   -0.4948 C.2     1  UNL1        0.2258
     13 O          -1.0996    3.5769   -0.4809 O.2     1  UNL1       -0.2747
     14 N          -2.3005    1.6553   -0.8676 N.am    1  UNL1       -0.3008
     15 C          -3.4930    2.4506   -1.1462 C.3     1  UNL1        0.0035
     16 C          -2.4258    0.1809   -0.8863 C.3     1  UNL1        0.0257
     17 C          -2.9711   -0.3437    0.4532 C.3     1  UNL1       -0.0343
     18 C          -3.0513   -1.8691    0.4649 C.3     1  UNL1       -0.0514
     19 C          -3.8629   -2.4021   -0.7125 C.3     1  UNL1       -0.0529
     20 C          -3.3368   -1.8770   -2.0455 C.3     1  UNL1       -0.0514
     21 C          -3.2696   -0.3506   -2.0584 C.3     1  UNL1       -0.0343
     22 N           2.2862   -0.0747    0.4934 N.ar    1  UNL1       -0.2443
     23 H           3.3066   -2.8570   -0.5297 H       1  UNL1        0.0292
     24 H           2.7870   -3.1390    1.1543 H       1  UNL1        0.0292
     25 H           1.6554   -2.4535   -0.0243 H       1  UNL1        0.0292
     26 H           5.1199   -1.7330    1.2757 H       1  UNL1        0.0638
     27 H           6.2093    1.0658    3.0236 H       1  UNL1        0.0278
     28 H           6.8033   -0.3119    2.0931 H       1  UNL1        0.0278
     29 H           6.8088    1.2913    1.3528 H       1  UNL1        0.0278
     30 H          -0.2067    0.7463    0.5998 H       1  UNL1        0.0475
     31 H           0.4303    1.0065   -1.0643 H       1  UNL1        0.0475
     32 H          -3.3531    3.5105   -0.9209 H       1  UNL1        0.0429
     33 H          -3.7380    2.3578   -2.2079 H       1  UNL1        0.0429
     34 H          -4.3254    2.0825   -0.5402 H       1  UNL1        0.0429
     35 H          -1.4235   -0.2391   -1.0188 H       1  UNL1        0.0500
     36 H          -3.9694    0.0702    0.6421 H       1  UNL1        0.0283
     37 H          -2.3375   -0.0080    1.2821 H       1  UNL1        0.0283
     38 H          -3.5017   -2.2068    1.4051 H       1  UNL1        0.0266
     39 H          -2.0377   -2.2871    0.4285 H       1  UNL1        0.0266
     40 H          -4.9126   -2.1062   -0.5938 H       1  UNL1        0.0265
     41 H          -3.8381   -3.4977   -0.7117 H       1  UNL1        0.0265
     42 H          -3.9834   -2.2241   -2.8592 H       1  UNL1        0.0266
     43 H          -2.3378   -2.2892   -2.2329 H       1  UNL1        0.0266
     44 H          -4.2921    0.0431   -2.0099 H       1  UNL1        0.0283
     45 H          -2.8430   -0.0102   -3.0095 H       1  UNL1        0.0283
@<TRIPOS>BOND
     1     1     2    1
     2     2     3   ar
     3     3     4   ar
     4     4     5    1
     5     4     6   ar
     6     6     7    1
     7     7     8    3
     8     6     9   ar
     9     9    10    1
    10    10    11    1
    11    11    12    1
    12    12    13    2
    13    12    14   am
    14    14    15    1
    15    14    16    1
    16    16    17    1
    17    17    18    1
    18    18    19    1
    19    19    20    1
    20    20    21    1
    21     9    22   ar
    22    22     2   ar
    23    21    16    1
    24     1    23    1
    25     1    24    1
    26     1    25    1
    27     3    26    1
    28     5    27    1
    29     5    28    1
    30     5    29    1
    31    11    30    1
    32    11    31    1
    33    15    32    1
    34    15    33    1
    35    15    34    1
    36    16    35    1
    37    17    36    1
    38    17    37    1
    39    18    38    1
    40    18    39    1
    41    19    40    1
    42    19    41    1
    43    20    42    1
    44    20    43    1
    45    21    44    1
    46    21    45    1
