@<TRIPOS>MOLECULE
*****
 41 42 0 0 0
SMALL
GASTEIGER

@<TRIPOS>ATOM
      1 C          -4.3639   -0.2916    1.4891 C.3     1  UNL1       -0.0223
      2 C          -3.1515    0.0282    0.6679 C.ar    1  UNL1        0.0407
      3 C          -3.1097    1.1818   -0.0986 C.ar    1  UNL1       -0.0358
      4 C          -1.9676    1.4620   -0.8567 C.ar    1  UNL1       -0.0202
      5 C          -1.9672    2.7134   -1.6899 C.3     1  UNL1       -0.0377
      6 C          -0.8834    0.5617   -0.7836 C.ar    1  UNL1        0.1362
      7 S           0.6624    0.9248   -1.5807 S.O2    1  UNL1        0.0288
      8 O           0.8284    2.3702   -1.6027 O.2     1  UNL1       -0.1642
      9 O           0.6331    0.2061   -2.8457 O.2     1  UNL1       -0.1642
     10 C           2.0690    0.3391   -0.6355 C.ar    1  UNL1        0.0966
     11 C           2.8917   -0.6331   -1.2286 C.ar    1  UNL1       -0.0362
     12 C           4.0106   -1.1138   -0.5514 C.ar    1  UNL1       -0.0599
     13 C           4.3209   -0.6182    0.7108 C.ar    1  UNL1       -0.0614
     14 C           3.5167    0.3617    1.2971 C.ar    1  UNL1       -0.0570
     15 C           2.3783    0.8587    0.6382 C.ar    1  UNL1       -0.0252
     16 C           1.5810    1.9405    1.3108 C.3     1  UNL1       -0.0379
     17 C          -1.0124   -0.6090   -0.0294 C.ar    1  UNL1        0.1468
     18 N          -0.0233   -1.6118   -0.0389 N.pl3   1  UNL1       -0.3198
     19 C          -0.3487   -2.6048   -1.0716 C.3     1  UNL1        0.0017
     20 C           0.1547   -2.2145    1.2868 C.3     1  UNL1        0.0017
     21 N          -2.1321   -0.8561    0.6975 N.ar    1  UNL1       -0.2353
     22 H          -4.5558    0.5101    2.2091 H       1  UNL1        0.0292
     23 H          -5.2381   -0.4111    0.8416 H       1  UNL1        0.0292
     24 H          -4.2222   -1.2229    2.0468 H       1  UNL1        0.0292
     25 H          -3.9618    1.8564   -0.1070 H       1  UNL1        0.0639
     26 H          -2.9890    3.0708   -1.8625 H       1  UNL1        0.0278
     27 H          -1.5396    2.5284   -2.6801 H       1  UNL1        0.0278
     28 H          -1.4195    3.5120   -1.1812 H       1  UNL1        0.0278
     29 H           2.6640   -1.0256   -2.2172 H       1  UNL1        0.0637
     30 H           4.6412   -1.8699   -1.0116 H       1  UNL1        0.0618
     31 H           5.1970   -0.9871    1.2385 H       1  UNL1        0.0618
     32 H           3.7929    0.7427    2.2788 H       1  UNL1        0.0621
     33 H           1.9053    2.0860    2.3473 H       1  UNL1        0.0278
     34 H           0.5201    1.6847    1.3533 H       1  UNL1        0.0278
     35 H           1.7149    2.8939    0.7919 H       1  UNL1        0.0278
     36 H          -1.2768   -3.1427   -0.8426 H       1  UNL1        0.0428
     37 H          -0.4476   -2.1442   -2.0603 H       1  UNL1        0.0428
     38 H           0.4604   -3.3404   -1.1408 H       1  UNL1        0.0428
     39 H           0.3461   -1.4468    2.0458 H       1  UNL1        0.0428
     40 H           1.0305   -2.8729    1.2707 H       1  UNL1        0.0428
     41 H          -0.7089   -2.8162    1.5947 H       1  UNL1        0.0428
@<TRIPOS>BOND
     1     1     2    1
     2     2     3   ar
     3     3     4   ar
     4     4     5    1
     5     4     6   ar
     6     6     7    1
     7     7     8    2
     8     7     9    2
     9     7    10    1
    10    10    11   ar
    11    11    12   ar
    12    12    13   ar
    13    13    14   ar
    14    14    15   ar
    15    15    16    1
    16     6    17   ar
    17    17    18    1
    18    18    19    1
    19    18    20    1
    20    17    21   ar
    21    21     2   ar
    22    15    10   ar
    23     1    22    1
    24     1    23    1
    25     1    24    1
    26     3    25    1
    27     5    26    1
    28     5    27    1
    29     5    28    1
    30    11    29    1
    31    12    30    1
    32    13    31    1
    33    14    32    1
    34    16    33    1
    35    16    34    1
    36    16    35    1
    37    19    36    1
    38    19    37    1
    39    19    38    1
    40    20    39    1
    41    20    40    1
    42    20    41    1
