@<TRIPOS>MOLECULE
*****
 34 36 0 0 0
SMALL
GASTEIGER

@<TRIPOS>ATOM
      1 C           3.4709    3.1410    1.3228 C.3     1  UNL1       -0.0222
      2 C           2.8439    1.8467    0.8876 C.ar    1  UNL1        0.0423
      3 C           3.6681    0.7836    0.5107 C.ar    1  UNL1       -0.0369
      4 C           3.1150   -0.4395    0.0928 C.ar    1  UNL1       -0.0346
      5 C           4.0131   -1.5712   -0.3092 C.3     1  UNL1       -0.0389
      6 C           1.7048   -0.5172    0.1031 C.ar    1  UNL1        0.0642
      7 C           0.7114   -1.4894   -0.1965 C.ar    1  UNL1        0.0840
      8 N           0.9136   -2.7600   -0.6095 N.pl3   1  UNL1       -0.3544
      9 C          -0.5249   -0.9021    0.0072 C.ar    1  UNL1        0.1986
     10 C          -1.8614   -1.4476   -0.1183 C.2     1  UNL1        0.2298
     11 O          -2.0721   -2.6575   -0.2334 O.2     1  UNL1       -0.2833
     12 C          -3.0529   -0.5495   -0.0993 C.ar    1  UNL1        0.0254
     13 C          -4.2470   -1.0422    0.4481 C.ar    1  UNL1       -0.0508
     14 C          -5.3944   -0.2471    0.4705 C.ar    1  UNL1       -0.0611
     15 C          -5.3595    1.0402   -0.0629 C.ar    1  UNL1       -0.0617
     16 C          -4.1819    1.5313   -0.6254 C.ar    1  UNL1       -0.0611
     17 C          -3.0318    0.7382   -0.6508 C.ar    1  UNL1       -0.0508
     18 O          -0.3436    0.3798    0.4456 O.2     1  UNL1       -0.4316
     19 C           0.9951    0.6153    0.4991 C.ar    1  UNL1        0.2303
     20 N           1.4956    1.7995    0.8897 N.ar    1  UNL1       -0.2173
     21 H           2.7044    3.8765    1.5877 H       1  UNL1        0.0293
     22 H           4.0775    3.5579    0.5128 H       1  UNL1        0.0293
     23 H           4.1039    2.9777    2.2006 H       1  UNL1        0.0293
     24 H           4.7481    0.9101    0.5384 H       1  UNL1        0.0638
     25 H           3.6894   -1.9934   -1.2656 H       1  UNL1        0.0278
     26 H           3.9930   -2.3537    0.4556 H       1  UNL1        0.0278
     27 H           5.0490   -1.2385   -0.4324 H       1  UNL1        0.0278
     28 H           1.7979   -3.2312   -0.4504 H       1  UNL1        0.1424
     29 H           0.1206   -3.4074   -0.6060 H       1  UNL1        0.1424
     30 H          -4.2864   -2.0486    0.8607 H       1  UNL1        0.0625
     31 H          -6.3146   -0.6336    0.9014 H       1  UNL1        0.0618
     32 H          -6.2528    1.6599   -0.0456 H       1  UNL1        0.0618
     33 H          -4.1586    2.5328   -1.0486 H       1  UNL1        0.0618
     34 H          -2.1336    1.1392   -1.1137 H       1  UNL1        0.0625
@<TRIPOS>BOND
     1     1     2    1
     2     2     3   ar
     3     3     4   ar
     4     4     5    1
     5     4     6   ar
     6     6     7   ar
     7     7     8    1
     8     7     9   ar
     9     9    10    1
    10    10    11    2
    11    10    12    1
    12    12    13   ar
    13    13    14   ar
    14    14    15   ar
    15    15    16   ar
    16    16    17   ar
    17     9    18   ar
    18    18    19   ar
    19    19    20   ar
    20    20     2   ar
    21    19     6   ar
    22    17    12   ar
    23     1    21    1
    24     1    22    1
    25     1    23    1
    26     3    24    1
    27     5    25    1
    28     5    26    1
    29     5    27    1
    30     8    28    1
    31     8    29    1
    32    13    30    1
    33    14    31    1
    34    15    32    1
    35    16    33    1
    36    17    34    1
