@<TRIPOS>MOLECULE
*****
 30 32 0 0 0
SMALL
GASTEIGER

@<TRIPOS>ATOM
      1 C          -3.9754   -0.7628    1.9750 C.3     1  UNL1       -0.0206
      2 C          -3.0184   -0.2678    0.9571 C.ar    1  UNL1        0.0607
      3 C          -2.7575   -0.7900   -0.3163 C.ar    1  UNL1       -0.0178
      4 C          -1.8181    0.0501   -0.8824 C.ar    1  UNL1        0.0450
      5 C          -1.3090   -0.0004   -2.2751 C.3     1  UNL1       -0.0221
      6 N          -1.4908    0.9926    0.0972 N.ar    1  UNL1       -0.2041
      7 C          -0.5344    2.0371    0.1673 C.2     1  UNL1        0.2535
      8 O          -0.6244    2.9003    1.0421 O.2     1  UNL1       -0.2705
      9 C           0.6139    1.9960   -0.7928 C.3     1  UNL1        0.0721
     10 C           1.5980    0.9370   -0.4389 C.ar    1  UNL1        0.0696
     11 C           2.1896    0.6697    0.7921 C.ar    1  UNL1        0.0334
     12 N           3.0117   -0.3889    0.5559 N.ar    1  UNL1       -0.3002
     13 C           3.8789   -1.1724    1.2799 C.ar    1  UNL1        0.0183
     14 C           4.4491   -2.1152    0.5090 C.ar    1  UNL1       -0.0044
     15 S           3.9065   -2.0485   -1.1798 S.2     1  UNL1       -0.0577
     16 C           2.8946   -0.7012   -0.7637 C.ar    1  UNL1        0.1775
     17 N           2.0624    0.0652   -1.4128 N.ar    1  UNL1       -0.2258
     18 N          -2.2938    0.8231    1.1950 N.ar    1  UNL1       -0.1690
     19 H          -3.4624   -0.9612    2.9216 H       1  UNL1        0.0293
     20 H          -4.7614   -0.0223    2.1546 H       1  UNL1        0.0293
     21 H          -4.4532   -1.6921    1.6487 H       1  UNL1        0.0293
     22 H          -3.2247   -1.6445   -0.7875 H       1  UNL1        0.0654
     23 H          -0.2795   -0.3569   -2.3152 H       1  UNL1        0.0293
     24 H          -1.3907    0.9748   -2.7631 H       1  UNL1        0.0293
     25 H          -1.9072   -0.6978   -2.8731 H       1  UNL1        0.0293
     26 H           0.2794    1.9350   -1.8273 H       1  UNL1        0.0426
     27 H           1.1261    2.9654   -0.7248 H       1  UNL1        0.0426
     28 H           2.0882    1.1300    1.7657 H       1  UNL1        0.0832
     29 H           4.0366   -0.9999    2.3329 H       1  UNL1        0.0819
     30 H           5.1660   -2.8542    0.8418 H       1  UNL1        0.0709
@<TRIPOS>BOND
     1     1     2    1
     2     2     3   ar
     3     3     4   ar
     4     4     5    1
     5     4     6   ar
     6     6     7   am
     7     7     8    2
     8     7     9    1
     9     9    10    1
    10    10    11   ar
    11    11    12   ar
    12    12    13   ar
    13    13    14   ar
    14    14    15   ar
    15    15    16   ar
    16    16    17   ar
    17     6    18   ar
    18    18     2   ar
    19    17    10   ar
    20    16    12   ar
    21     1    19    1
    22     1    20    1
    23     1    21    1
    24     3    22    1
    25     5    23    1
    26     5    24    1
    27     5    25    1
    28     9    26    1
    29     9    27    1
    30    11    28    1
    31    13    29    1
    32    14    30    1
