@<TRIPOS>MOLECULE
*****
 29 30 0 0 0
SMALL
GASTEIGER

@<TRIPOS>ATOM
      1 C          -4.6688    0.2300    0.0990 C.3     1  UNL1       -0.0383
      2 C          -3.1696    0.2569   -0.0473 C.ar    1  UNL1       -0.0261
      3 C          -2.5180   -1.0271    0.1183 C.ar    1  UNL1       -0.0362
      4 C          -1.1828   -1.1509    0.0563 C.ar    1  UNL1        0.0439
      5 C          -0.5178   -2.4893    0.2403 C.3     1  UNL1       -0.0222
      6 N          -0.3907   -0.0289   -0.1696 N.ar    1  UNL1       -0.2000
      7 N           0.9644   -0.2878   -0.2863 N.2     1  UNL1       -0.1683
      8 C           1.8138    0.6426    0.0164 C.2     1  UNL1        0.0906
      9 C           3.2225    0.4080   -0.1393 C.ar    1  UNL1        0.1473
     10 C           3.9387   -0.6661   -0.6314 C.ar    1  UNL1       -0.0149
     11 C           5.3078   -0.3200   -0.5334 C.ar    1  UNL1       -0.0233
     12 C           5.3442    0.9409    0.0128 C.ar    1  UNL1        0.0926
     13 O           4.0864    1.3904    0.2573 O.2     1  UNL1       -0.4620
     14 C          -0.9411    1.2426   -0.4420 C.ar    1  UNL1        0.2892
     15 O          -0.2891    2.2336   -0.7733 O.2     1  UNL1       -0.2644
     16 C          -2.4316    1.3535   -0.3159 C.ar    1  UNL1        0.1207
     17 C          -3.0086    2.6412   -0.4974 C.1     1  UNL1        0.1049
     18 N          -3.5345    3.6682   -0.6289 N.1     1  UNL1       -0.1907
     19 H          -5.1339    1.2116   -0.0279 H       1  UNL1        0.0278
     20 H          -5.1123   -0.4377   -0.6482 H       1  UNL1        0.0278
     21 H          -4.9473   -0.1336    1.0945 H       1  UNL1        0.0278
     22 H          -3.1439   -1.8985    0.2976 H       1  UNL1        0.0638
     23 H           0.0392   -2.7729   -0.6591 H       1  UNL1        0.0293
     24 H          -1.2471   -3.2837    0.4340 H       1  UNL1        0.0293
     25 H           0.1701   -2.4666    1.0923 H       1  UNL1        0.0293
     26 H           1.5318    1.6192    0.4430 H       1  UNL1        0.0885
     27 H           3.5132   -1.5830   -1.0159 H       1  UNL1        0.0656
     28 H           6.1621   -0.9140   -0.8260 H       1  UNL1        0.0649
     29 H           6.1425    1.6211    0.2760 H       1  UNL1        0.1029
@<TRIPOS>BOND
     1     1     2    1
     2     2     3   ar
     3     3     4   ar
     4     4     5    1
     5     4     6   ar
     6     6     7    1
     7     7     8    2
     8     8     9    1
     9     9    10   ar
    10    10    11   ar
    11    11    12   ar
    12    12    13   ar
    13     6    14   ar
    14    14    15    2
    15    14    16   ar
    16    16    17    1
    17    17    18    3
    18    16     2   ar
    19    13     9   ar
    20     1    19    1
    21     1    20    1
    22     1    21    1
    23     3    22    1
    24     5    23    1
    25     5    24    1
    26     5    25    1
    27     8    26    1
    28    10    27    1
    29    11    28    1
    30    12    29    1
