@<TRIPOS>MOLECULE
*****
 29 30 0 0 0
SMALL
GASTEIGER

@<TRIPOS>ATOM
      1 C           1.9443   -2.4243    0.7780 C.3     1  UNL1       -0.0221
      2 C           1.9952   -0.9459    0.5369 C.ar    1  UNL1        0.0453
      3 C           3.1650   -0.2435    0.7539 C.ar    1  UNL1       -0.0193
      4 C           3.1299    1.1156    0.5059 C.ar    1  UNL1        0.0453
      5 C           4.3559    1.9531    0.7127 C.3     1  UNL1       -0.0221
      6 N           2.0182    1.7420    0.0744 N.ar    1  UNL1       -0.1998
      7 C           0.9286    0.9781   -0.1035 C.ar    1  UNL1        0.3238
      8 O          -0.1898    1.6626   -0.5678 O.3     1  UNL1       -0.4236
      9 C          -1.3676    0.9594   -0.5911 C.ar    1  UNL1        0.1323
     10 C          -2.0895    0.7503    0.5871 C.ar    1  UNL1       -0.0128
     11 C          -3.3074    0.0689    0.5410 C.ar    1  UNL1        0.0191
     12 C          -3.7985   -0.3829   -0.6930 C.ar    1  UNL1        0.2734
     13 N          -5.0773   -1.1030   -0.7457 N.pl3   1  UNL1        0.0796
     14 O          -5.6798   -1.2883    0.3215 O.2     1  UNL1        0.0414
     15 O          -5.4804   -1.4831   -1.8545 O.co2   1  UNL1       -0.5760
     16 C          -3.0842   -0.1500   -1.8778 C.ar    1  UNL1        0.0191
     17 C          -1.8670    0.5321   -1.8228 C.ar    1  UNL1       -0.0128
     18 N           0.8672   -0.3503    0.1058 N.ar    1  UNL1       -0.1998
     19 H           2.1783   -2.6454    1.8240 H       1  UNL1        0.0293
     20 H           0.9470   -2.8206    0.5610 H       1  UNL1        0.0293
     21 H           2.6630   -2.9379    0.1319 H       1  UNL1        0.0293
     22 H           4.0662   -0.7343    1.1000 H       1  UNL1        0.0653
     23 H           4.6802    1.8976    1.7565 H       1  UNL1        0.0293
     24 H           5.1660    1.6041    0.0649 H       1  UNL1        0.0293
     25 H           4.1563    3.0026    0.4733 H       1  UNL1        0.0293
     26 H          -1.7012    1.1094    1.5367 H       1  UNL1        0.0656
     27 H          -3.8554   -0.0995    1.4655 H       1  UNL1        0.0686
     28 H          -3.4583   -0.4892   -2.8414 H       1  UNL1        0.0686
     29 H          -1.3051    0.7225   -2.7337 H       1  UNL1        0.0656
@<TRIPOS>UNITY_ATOM_ATTR
13 1
charge 1
15 1
charge -1
@<TRIPOS>BOND
     1     1     2    1
     2     2     3   ar
     3     3     4   ar
     4     4     5    1
     5     4     6   ar
     6     6     7   ar
     7     7     8    1
     8     8     9    1
     9     9    10   ar
    10    10    11   ar
    11    11    12   ar
    12    12    13    1
    13    13    14    2
    14    13    15    1
    15    12    16   ar
    16    16    17   ar
    17     7    18   ar
    18    18     2   ar
    19    17     9   ar
    20     1    19    1
    21     1    20    1
    22     1    21    1
    23     3    22    1
    24     5    23    1
    25     5    24    1
    26     5    25    1
    27    10    26    1
    28    11    27    1
    29    16    28    1
    30    17    29    1
