@<TRIPOS>MOLECULE
*****
 39 44 0 0 0
SMALL
GASTEIGER

@<TRIPOS>ATOM
      1 SI          2.5230    0.2186   -1.4045 Si      1  UNL1        0.0000
      2 C           3.5958    0.0358    0.1248 C.2     1  UNL1        0.0000
      3 C           2.8598   -0.1269    1.2477 C.2     1  UNL1        0.0000
      4 C           1.4059   -0.1249    1.0272 C.ar    1  UNL1        0.0000
      5 C           0.4455   -0.2736    2.0124 C.ar    1  UNL1        0.0000
      6 C          -0.9209   -0.2533    1.6659 C.ar    1  UNL1        0.0000
      7 C          -1.8877   -0.4021    2.6513 C.ar    1  UNL1        0.0000
      8 N          -3.2227   -0.4001    2.4475 N.ar    1  UNL1        0.0000
      9 C          -3.6827   -0.2439    1.2056 C.ar    1  UNL1        0.0000
     10 C          -5.1008   -0.2561    1.0970 C.ar    1  UNL1        0.0000
     11 C          -5.8528   -0.1132   -0.0867 C.ar    1  UNL1        0.0000
     12 C          -5.0020    0.0452   -1.1601 C.ar    1  UNL1        0.0000
     13 C          -5.4179    0.2092   -2.4548 C.ar    1  UNL1        0.0000
     14 N          -4.2834    0.3317   -3.2176 N.ar    1  UNL1        0.0000
     15 C          -3.1600    0.2465   -2.4164 C.ar    1  UNL1        0.0000
     16 C          -3.5708    0.0661   -1.1151 C.ar    1  UNL1        0.0000
     17 C          -2.7903   -0.0785    0.0849 C.ar    1  UNL1        0.0000
     18 C          -1.3580   -0.0839    0.3281 C.ar    1  UNL1        0.0000
     19 C          -0.3462    0.0653   -0.6540 C.ar    1  UNL1        0.0000
     20 C           1.0050    0.0445   -0.3061 C.ar    1  UNL1        0.0000
     21 C           5.0512    0.0749    0.0355 C.ar    1  UNL1        0.0000
     22 N           5.7289   -0.0641    1.1791 N.ar    1  UNL1        0.0000
     23 C           7.0525   -0.0225    1.0520 C.ar    1  UNL1        0.0000
     24 N           7.7252    0.1407   -0.0831 N.ar    1  UNL1        0.0000
     25 C           6.9459    0.2680   -1.1525 C.ar    1  UNL1        0.0000
     26 N           5.6144    0.2443   -1.1620 N.ar    1  UNL1        0.0000
     27 H           2.6258   -0.9198   -2.3553 H       1  UNL1        0.0000
     28 H           2.5792    1.5685   -2.0252 H       1  UNL1        0.0000
     29 H           3.2738   -0.2510    2.2408 H       1  UNL1        0.0000
     30 H           0.7515   -0.4052    3.0474 H       1  UNL1        0.0000
     31 H          -1.6080   -0.5353    3.6943 H       1  UNL1        0.0000
     32 H          -5.6608   -0.3898    2.0253 H       1  UNL1        0.0000
     33 H          -6.9321   -0.1295   -0.1164 H       1  UNL1        0.0000
     34 H          -6.4000    0.2507   -2.9063 H       1  UNL1        0.0000
     35 H          -4.2693    0.4651   -4.2206 H       1  UNL1        0.0000
     36 H          -2.1969    0.3276   -2.8914 H       1  UNL1        0.0000
     37 H          -0.5976    0.1989   -1.6961 H       1  UNL1        0.0000
     38 H           7.6365   -0.1320    1.9594 H       1  UNL1        0.0000
     39 H           7.4413    0.4040   -2.1079 H       1  UNL1        0.0000
@<TRIPOS>BOND
     1     1     2    1
     2     2     3    2
     3     3     4    1
     4     4     5   ar
     5     5     6   ar
     6     6     7   ar
     7     7     8   ar
     8     8     9   ar
     9     9    10   ar
    10    10    11   ar
    11    11    12   ar
    12    12    13   ar
    13    13    14   ar
    14    14    15   ar
    15    15    16   ar
    16    16    17   ar
    17    17    18   ar
    18    18    19   ar
    19    19    20   ar
    20     2    21    1
    21    21    22   ar
    22    22    23   ar
    23    23    24   ar
    24    24    25   ar
    25    25    26   ar
    26    20     1    1
    27    26    21   ar
    28    20     4   ar
    29    18     6   ar
    30    17     9   ar
    31    16    12   ar
    32     1    27    1
    33     1    28    1
    34     3    29    1
    35     5    30    1
    36     7    31    1
    37    10    32    1
    38    11    33    1
    39    13    34    1
    40    14    35    1
    41    15    36    1
    42    19    37    1
    43    23    38    1
    44    25    39    1
