@<TRIPOS>MOLECULE
*****
 48 55 0 0 0
SMALL
GASTEIGER

@<TRIPOS>ATOM
      1 SI          5.5902    0.8293   -2.3732 Si      1  UNL1        0.0000
      2 C           6.4109   -0.5881   -1.4647 C.2     1  UNL1        0.0000
      3 C           5.5214   -1.2255   -0.6812 C.ar    1  UNL1        0.0000
      4 C           5.8141   -2.3705    0.1569 C.ar    1  UNL1        0.0000
      5 C           4.8195   -2.9102    0.8861 C.ar    1  UNL1        0.0000
      6 C           3.4581   -2.3776    0.8585 C.ar    1  UNL1        0.0000
      7 C           3.1050   -1.3054    0.1106 C.ar    1  UNL1        0.0000
      8 C           1.7072   -0.8739    0.1549 C.ar    1  UNL1        0.0000
      9 C           0.6998   -1.4097   -0.6718 C.ar    1  UNL1        0.0000
     10 C          -0.6179   -0.9150   -0.5714 C.ar    1  UNL1        0.0000
     11 O          -1.6627   -1.3186   -1.3544 O.2     1  UNL1        0.0000
     12 C          -2.7517   -0.6039   -0.9544 C.ar    1  UNL1        0.0000
     13 C          -4.0527   -0.6375   -1.5468 C.ar    1  UNL1        0.0000
     14 O          -4.4684   -1.3488   -2.6301 O.2     1  UNL1        0.0000
     15 C          -5.7788   -1.0287   -2.8246 C.ar    1  UNL1        0.0000
     16 C          -6.2130   -0.1207   -1.8810 C.ar    1  UNL1        0.0000
     17 C          -5.0963    0.1307   -1.0584 C.ar    1  UNL1        0.0000
     18 C          -4.8930    0.9454    0.1023 C.ar    1  UNL1        0.0000
     19 C          -5.8409    1.6557    0.7446 C.2     1  UNL1        0.0000
     20 SI         -5.1676    2.4132    2.3049 Si      1  UNL1        0.0000
     21 C          -3.5200    1.6154    1.9324 C.2     1  UNL1        0.0000
     22 C          -3.5274    0.9638    0.7537 C.ar    1  UNL1        0.0000
     23 C          -2.4529    0.2205    0.1385 C.ar    1  UNL1        0.0000
     24 C          -1.0718    0.0658    0.3005 C.ar    1  UNL1        0.0000
     25 C          -0.0583    0.6732    1.1042 C.ar    1  UNL1        0.0000
     26 C          -0.0780    1.7443    1.9467 C.ar    1  UNL1        0.0000
     27 N           1.2144    1.8676    2.4193 N.ar    1  UNL1        0.0000
     28 C           2.0278    0.9142    1.8409 C.ar    1  UNL1        0.0000
     29 C           1.2548    0.1598    0.9848 C.ar    1  UNL1        0.0000
     30 C           4.1430   -0.6784   -0.7131 C.ar    1  UNL1        0.0000
     31 C           3.9845    0.3828   -1.5300 C.2     1  UNL1        0.0000
     32 H           6.1138    2.1482   -1.9409 H       1  UNL1        0.0000
     33 H           5.5505    0.6092   -3.8393 H       1  UNL1        0.0000
     34 H           7.4562   -0.8163   -1.5946 H       1  UNL1        0.0000
     35 H           6.8195   -2.7740    0.1832 H       1  UNL1        0.0000
     36 H           5.0051   -3.7696    1.5227 H       1  UNL1        0.0000
     37 H           2.7300   -2.8904    1.4822 H       1  UNL1        0.0000
     38 H           0.9294   -2.1864   -1.3948 H       1  UNL1        0.0000
     39 H          -6.2545   -1.5232   -3.6602 H       1  UNL1        0.0000
     40 H          -7.2083    0.2923   -1.8063 H       1  UNL1        0.0000
     41 H          -6.8801    1.7516    0.4738 H       1  UNL1        0.0000
     42 H          -5.1023    3.8924    2.2373 H       1  UNL1        0.0000
     43 H          -5.7997    1.8574    3.5245 H       1  UNL1        0.0000
     44 H          -2.7219    1.6843    2.6467 H       1  UNL1        0.0000
     45 H          -0.8285    2.4566    2.2464 H       1  UNL1        0.0000
     46 H           1.5297    2.5770    3.0683 H       1  UNL1        0.0000
     47 H           3.0836    0.8828    2.0770 H       1  UNL1        0.0000
     48 H           3.0784    0.9393   -1.7104 H       1  UNL1        0.0000
@<TRIPOS>BOND
     1     1     2    1
     2     2     3    2
     3     3     4   ar
     4     4     5   ar
     5     5     6   ar
     6     6     7   ar
     7     7     8    1
     8     8     9   ar
     9     9    10   ar
    10    10    11   ar
    11    11    12   ar
    12    12    13   ar
    13    13    14   ar
    14    14    15   ar
    15    15    16   ar
    16    16    17   ar
    17    17    18   ar
    18    18    19    2
    19    19    20    1
    20    20    21    1
    21    21    22    2
    22    22    23   ar
    23    23    24   ar
    24    24    25   ar
    25    25    26   ar
    26    26    27   ar
    27    27    28   ar
    28    28    29   ar
    29     7    30   ar
    30    30    31    2
    31    31     1    1
    32    30     3   ar
    33    29     8   ar
    34    24    10   ar
    35    29    25   ar
    36    23    12   ar
    37    17    13   ar
    38    22    18   ar
    39     1    32    1
    40     1    33    1
    41     2    34    1
    42     4    35    1
    43     5    36    1
    44     6    37    1
    45     9    38    1
    46    15    39    1
    47    16    40    1
    48    19    41    1
    49    20    42    1
    50    20    43    1
    51    21    44    1
    52    26    45    1
    53    27    46    1
    54    28    47    1
    55    31    48    1
