@<TRIPOS>MOLECULE
*****
 47 52 0 0 0
SMALL
GASTEIGER

@<TRIPOS>ATOM
      1 C          -0.7701    1.6996   -2.5261 C.3     1  UNL1       -0.0386
      2 C          -0.1016    0.8561   -1.4892 C.ar    1  UNL1       -0.0346
      3 C           1.3026    0.9429   -1.1922 C.ar    1  UNL1       -0.0429
      4 C           1.7253    0.0612   -0.2138 C.ar    1  UNL1        0.0268
      5 C           3.0634   -0.1143    0.3167 C.ar    1  UNL1        0.0268
      6 C           3.4582   -0.8678    1.4056 C.ar    1  UNL1       -0.0429
      7 C           4.8733   -0.8323    1.6618 C.ar    1  UNL1       -0.0346
      8 C           5.5026   -1.6078    2.7742 C.3     1  UNL1       -0.0386
      9 C           5.5257   -0.0179    0.7463 C.ar    1  UNL1        0.0294
     10 C           6.9114    0.3382    0.6279 C.2     1  UNL1        0.0262
     11 S           7.9153    0.5847    2.0217 S.3     1  UNL1       -0.0961
     12 C           9.2585    0.9957    1.0155 C.2     1  UNL1       -0.0237
     13 C           8.9240    0.9357   -0.4001 C.2     1  UNL1       -0.0541
     14 C           7.6543    0.5808   -0.6136 C.2     1  UNL1       -0.0464
     15 S           4.4254    0.6365   -0.3965 S.2     1  UNL1       -0.0870
     16 S           0.4032   -0.8789    0.3411 S.2     1  UNL1       -0.0870
     17 C          -0.7150   -0.1010   -0.6961 C.ar    1  UNL1        0.0294
     18 C          -2.1040   -0.4852   -0.6648 C.ar    1  UNL1        0.0267
     19 C          -2.6234   -1.7495   -0.8527 C.ar    1  UNL1       -0.0458
     20 C          -4.0442   -1.7758   -0.7373 C.ar    1  UNL1       -0.0463
     21 C          -4.5819   -0.5327   -0.4595 C.ar    1  UNL1        0.0220
     22 C          -5.9802   -0.1510   -0.2611 C.ar    1  UNL1        0.0169
     23 C          -6.5590    1.0138   -0.8200 C.ar    1  UNL1       -0.0513
     24 C          -7.9132    1.3836   -0.6366 C.ar    1  UNL1       -0.0590
     25 C          -8.8162    0.6244    0.1232 C.ar    1  UNL1       -0.0335
     26 C          -8.3027   -0.5572    0.7089 C.ar    1  UNL1        0.1005
     27 N          -9.0044   -1.4149    1.4658 N.ar    1  UNL1       -0.1908
     28 S          -7.9534   -2.6180    1.9093 S.2     1  UNL1        0.1165
     29 N          -6.5669   -2.1157    1.1535 N.ar    1  UNL1       -0.1902
     30 C          -6.8566   -0.9650    0.5175 C.ar    1  UNL1        0.1080
     31 S          -3.3417    0.6496   -0.3369 S.2     1  UNL1       -0.0877
     32 H          -1.4859    1.1134   -3.1110 H       1  UNL1        0.0278
     33 H          -0.0367    2.1138   -3.2259 H       1  UNL1        0.0278
     34 H          -1.2969    2.5357   -2.0559 H       1  UNL1        0.0278
     35 H           1.9675    1.6375   -1.6924 H       1  UNL1        0.0632
     36 H           2.7664   -1.4392    2.0136 H       1  UNL1        0.0632
     37 H           5.7399   -0.9496    3.6149 H       1  UNL1        0.0278
     38 H           4.8230   -2.3843    3.1417 H       1  UNL1        0.0278
     39 H           6.4152   -2.1091    2.4377 H       1  UNL1        0.0278
     40 H          10.2657    1.2752    1.3479 H       1  UNL1        0.0693
     41 H           9.6483    1.1583   -1.1680 H       1  UNL1        0.0623
     42 H           7.2055    0.4701   -1.5885 H       1  UNL1        0.0629
     43 H          -2.0160   -2.6210   -1.0645 H       1  UNL1        0.0629
     44 H          -4.6419   -2.6727   -0.8503 H       1  UNL1        0.0629
     45 H          -5.9415    1.6674   -1.4380 H       1  UNL1        0.0624
     46 H          -8.2703    2.2993   -1.1091 H       1  UNL1        0.0618
     47 H          -9.8510    0.9184    0.2551 H       1  UNL1        0.0640
@<TRIPOS>BOND
     1     1     2    1
     2     2     3   ar
     3     3     4   ar
     4     4     5    1
     5     5     6   ar
     6     6     7   ar
     7     7     8    1
     8     7     9   ar
     9     9    10    1
    10    10    11    2
    11    11    12    2
    12    12    13    1
    13    13    14    2
    14     9    15   ar
    15     4    16   ar
    16    16    17   ar
    17    17    18    1
    18    18    19   ar
    19    19    20   ar
    20    20    21   ar
    21    21    22    1
    22    22    23   ar
    23    23    24   ar
    24    24    25   ar
    25    25    26   ar
    26    26    27   ar
    27    27    28   ar
    28    28    29   ar
    29    29    30   ar
    30    21    31   ar
    31    17     2   ar
    32    31    18   ar
    33    15     5   ar
    34    30    22   ar
    35    14    10    1
    36    30    26   ar
    37     1    32    1
    38     1    33    1
    39     1    34    1
    40     3    35    1
    41     6    36    1
    42     8    37    1
    43     8    38    1
    44     8    39    1
    45    12    40    1
    46    13    41    1
    47    14    42    1
    48    19    43    1
    49    20    44    1
    50    23    45    1
    51    24    46    1
    52    25    47    1
