@<TRIPOS>MOLECULE
*****
 47 52 0 0 0
SMALL
GASTEIGER

@<TRIPOS>ATOM
      1 C          -6.1819   -1.4164   -1.7777 C.3     1  UNL1       -0.0386
      2 C          -5.1390   -0.7235   -0.9594 C.ar    1  UNL1       -0.0346
      3 C          -3.7370   -1.0148   -1.0756 C.ar    1  UNL1       -0.0433
      4 C          -2.9387   -0.2535   -0.2437 C.ar    1  UNL1        0.0223
      5 C          -1.4843   -0.2741   -0.0803 C.ar    1  UNL1        0.0169
      6 C          -0.6968    0.8934    0.0172 C.ar    1  UNL1       -0.0508
      7 C           0.7094    0.8778    0.1698 C.ar    1  UNL1       -0.0508
      8 C           1.4743   -0.3070    0.2365 C.ar    1  UNL1        0.0169
      9 C           2.9295   -0.3187    0.3946 C.ar    1  UNL1        0.0223
     10 C           3.7168   -1.1170    1.2007 C.ar    1  UNL1       -0.0433
     11 C           5.1236   -0.8512    1.0811 C.ar    1  UNL1       -0.0346
     12 C           6.1624   -1.5837    1.8685 C.3     1  UNL1       -0.0386
     13 C           5.3596    0.1558    0.1567 C.ar    1  UNL1        0.0294
     14 C           6.6227    0.7103   -0.2635 C.ar    1  UNL1        0.0262
     15 C           7.0105    2.0368   -0.2122 C.ar    1  UNL1       -0.0464
     16 C           8.3272    2.2419   -0.7195 C.ar    1  UNL1       -0.0541
     17 C           8.8996    1.0667   -1.1509 C.ar    1  UNL1       -0.0237
     18 S           7.8544   -0.2708   -0.9428 S.2     1  UNL1       -0.0961
     19 S           3.9020    0.7625   -0.5090 S.2     1  UNL1       -0.0874
     20 C           0.7397   -1.5276    0.1457 C.ar    1  UNL1        0.1087
     21 N           1.2361   -2.7787    0.1823 N.ar    1  UNL1       -0.1901
     22 S          -0.0398   -3.8183    0.0337 S.2     1  UNL1        0.1165
     23 N          -1.2950   -2.7501   -0.0876 N.ar    1  UNL1       -0.1901
     24 C          -0.7740   -1.5106   -0.0197 C.ar    1  UNL1        0.1087
     25 S          -3.8947    0.8194    0.6863 S.2     1  UNL1       -0.0874
     26 C          -5.3625    0.2616   -0.0067 C.ar    1  UNL1        0.0294
     27 C          -6.6163    0.8273    0.4311 C.ar    1  UNL1        0.0262
     28 C          -6.9497    2.1673    0.5041 C.ar    1  UNL1       -0.0464
     29 C          -8.2692    2.3803    1.0007 C.ar    1  UNL1       -0.0541
     30 C          -8.9028    1.1951    1.2950 C.ar    1  UNL1       -0.0237
     31 S          -7.9077   -0.1587    0.9821 S.2     1  UNL1       -0.0961
     32 H          -6.9300   -0.7060   -2.1469 H       1  UNL1        0.0278
     33 H          -5.7348   -1.9056   -2.6529 H       1  UNL1        0.0278
     34 H          -6.6830   -2.1877   -1.1826 H       1  UNL1        0.0278
     35 H          -3.3363   -1.7620   -1.7519 H       1  UNL1        0.0632
     36 H          -1.1838    1.8684   -0.0344 H       1  UNL1        0.0625
     37 H           1.2151    1.8417    0.2460 H       1  UNL1        0.0625
     38 H           3.3051   -1.8727    1.8603 H       1  UNL1        0.0632
     39 H           6.9064   -0.8912    2.2763 H       1  UNL1        0.0278
     40 H           6.6707   -2.3188    1.2367 H       1  UNL1        0.0278
     41 H           5.7123   -2.1187    2.7114 H       1  UNL1        0.0278
     42 H           6.3807    2.8278    0.1778 H       1  UNL1        0.0629
     43 H           8.8251    3.2022   -0.7661 H       1  UNL1        0.0623
     44 H           9.8815    0.9265   -1.5810 H       1  UNL1        0.0693
     45 H          -6.2781    2.9647    0.2109 H       1  UNL1        0.0629
     46 H          -8.7276    3.3528    1.1362 H       1  UNL1        0.0623
     47 H          -9.9022    1.0571    1.6844 H       1  UNL1        0.0693
@<TRIPOS>BOND
     1     1     2    1
     2     2     3   ar
     3     3     4   ar
     4     4     5    1
     5     5     6   ar
     6     6     7   ar
     7     7     8   ar
     8     8     9    1
     9     9    10   ar
    10    10    11   ar
    11    11    12    1
    12    11    13   ar
    13    13    14    1
    14    14    15   ar
    15    15    16   ar
    16    16    17   ar
    17    17    18   ar
    18    13    19   ar
    19     8    20   ar
    20    20    21   ar
    21    21    22   ar
    22    22    23   ar
    23    23    24   ar
    24     4    25   ar
    25    25    26   ar
    26    26    27    1
    27    27    28   ar
    28    28    29   ar
    29    29    30   ar
    30    30    31   ar
    31    26     2   ar
    32    31    27   ar
    33    24     5   ar
    34    19     9   ar
    35    24    20   ar
    36    18    14   ar
    37     1    32    1
    38     1    33    1
    39     1    34    1
    40     3    35    1
    41     6    36    1
    42     7    37    1
    43    10    38    1
    44    12    39    1
    45    12    40    1
    46    12    41    1
    47    15    42    1
    48    16    43    1
    49    17    44    1
    50    28    45    1
    51    29    46    1
    52    30    47    1
