@<TRIPOS>MOLECULE
*****
 27 28 0 0 0
SMALL
GASTEIGER

@<TRIPOS>ATOM
      1 C          -2.7451    2.7378    0.7902 C.3     1  UNL1       -0.0223
      2 C          -2.1124    1.3904    0.6126 C.ar    1  UNL1        0.0410
      3 C          -0.7703    1.2848    0.2776 C.ar    1  UNL1       -0.0316
      4 C          -0.2000    0.0155    0.1196 C.ar    1  UNL1        0.0045
      5 C           1.2233   -0.0890   -0.2352 C.ar    1  UNL1       -0.0154
      6 C           2.1787   -0.4645    0.7233 C.ar    1  UNL1       -0.0539
      7 C           3.5308   -0.5616    0.3855 C.ar    1  UNL1       -0.0601
      8 C           3.9474   -0.2805   -0.9144 C.ar    1  UNL1       -0.0477
      9 C           3.0085    0.0975   -1.8709 C.ar    1  UNL1        0.0185
     10 BR          3.5705    0.4831   -3.6345 Br      1  UNL1       -0.0503
     11 C           1.6562    0.1953   -1.5400 C.ar    1  UNL1       -0.0400
     12 C          -1.0238   -1.1106    0.3057 C.ar    1  UNL1        0.0989
     13 C          -0.5097   -2.4379    0.1477 C.1     1  UNL1        0.1032
     14 N          -0.1251   -3.5275    0.0349 N.1     1  UNL1       -0.1907
     15 C          -2.3690   -0.9208    0.6423 C.ar    1  UNL1        0.1345
     16 N          -3.2576   -1.9854    0.8413 N.pl3   1  UNL1       -0.3421
     17 N          -2.9000    0.3076    0.7927 N.ar    1  UNL1       -0.2363
     18 H          -3.8041    2.6404    1.0503 H       1  UNL1        0.0292
     19 H          -2.6737    3.3141   -0.1375 H       1  UNL1        0.0292
     20 H          -2.2457    3.2868    1.5945 H       1  UNL1        0.0292
     21 H          -0.1705    2.1820    0.1453 H       1  UNL1        0.0642
     22 H           1.8764   -0.6854    1.7458 H       1  UNL1        0.0624
     23 H           4.2586   -0.8588    1.1369 H       1  UNL1        0.0618
     24 H           5.0008   -0.3602   -1.1703 H       1  UNL1        0.0629
     25 H           0.9348    0.4881   -2.3002 H       1  UNL1        0.0635
     26 H          -3.3397   -2.5512    0.0007 H       1  UNL1        0.1437
     27 H          -2.9391   -2.5899    1.5938 H       1  UNL1        0.1437
@<TRIPOS>BOND
     1     1     2    1
     2     2     3   ar
     3     3     4   ar
     4     4     5    1
     5     5     6   ar
     6     6     7   ar
     7     7     8   ar
     8     8     9   ar
     9     9    10    1
    10     9    11   ar
    11     4    12   ar
    12    12    13    1
    13    13    14    3
    14    12    15   ar
    15    15    16    1
    16    15    17   ar
    17    17     2   ar
    18    11     5   ar
    19     1    18    1
    20     1    19    1
    21     1    20    1
    22     3    21    1
    23     6    22    1
    24     7    23    1
    25     8    24    1
    26    11    25    1
    27    16    26    1
    28    16    27    1
