@<TRIPOS>MOLECULE
*****
 36 39 0 0 0
SMALL
GASTEIGER

@<TRIPOS>ATOM
      1 C           6.6761    1.4288    1.1118 C.3     1  UNL1       -0.0229
      2 C           5.3194    0.9287    0.8029 C.ar    1  UNL1        0.0337
      3 C           4.8718   -0.2621    0.2755 C.ar    1  UNL1       -0.0105
      4 C           3.4647   -0.1395    0.2211 C.ar    1  UNL1        0.1314
      5 C           2.5017   -1.2390   -0.3070 C.ar    1  UNL1        0.2056
      6 N           2.8917   -2.4244   -0.7694 N.ar    1  UNL1       -0.1248
      7 N           1.7646   -3.1444   -1.1528 N.ar    1  UNL1       -0.1199
      8 C           0.7556   -2.3614   -0.9037 C.ar    1  UNL1        0.2183
      9 S          -0.9423   -2.4319   -1.0613 S.2     1  UNL1       -0.0309
     10 C          -0.9588   -0.7847   -0.3758 C.ar    1  UNL1        0.1055
     11 C          -2.2726   -0.0593   -0.1841 C.3     1  UNL1        0.0096
     12 C          -3.2577   -0.8496    0.6807 C.3     1  UNL1       -0.0442
     13 C          -4.5153   -0.0347    0.9897 C.3     1  UNL1       -0.0524
     14 C          -4.9384    0.8930   -0.1514 C.3     1  UNL1       -0.0530
     15 C          -4.4180    0.4188   -1.5022 C.3     1  UNL1       -0.0524
     16 C          -2.8886    0.3628   -1.5286 C.3     1  UNL1       -0.0442
     17 N           0.1878   -0.2436   -0.0683 N.ar    1  UNL1       -0.1600
     18 N           1.1369   -1.1713   -0.3811 N.ar    1  UNL1       -0.1841
     19 N           3.0569    1.0479    0.6831 N.ar    1  UNL1       -0.1704
     20 N           4.1941    1.6726    1.0272 N.ar    1  UNL1       -0.2812
     21 H           6.7687    1.6596    2.1778 H       1  UNL1        0.0292
     22 H           7.4361    0.6823    0.8597 H       1  UNL1        0.0292
     23 H           6.8916    2.3375    0.5406 H       1  UNL1        0.0292
     24 H           5.4686   -1.1102   -0.0317 H       1  UNL1        0.0658
     25 H          -2.0322    0.8619    0.3675 H       1  UNL1        0.0370
     26 H          -2.7850   -1.1666    1.6184 H       1  UNL1        0.0272
     27 H          -3.5579   -1.7711    0.1658 H       1  UNL1        0.0272
     28 H          -5.3324   -0.7269    1.2267 H       1  UNL1        0.0265
     29 H          -4.3553    0.5675    1.8924 H       1  UNL1        0.0265
     30 H          -4.5560    1.9030    0.0441 H       1  UNL1        0.0265
     31 H          -6.0311    0.9745   -0.1730 H       1  UNL1        0.0265
     32 H          -4.8246   -0.5770   -1.7188 H       1  UNL1        0.0265
     33 H          -4.7737    1.0825   -2.2984 H       1  UNL1        0.0265
     34 H          -2.4992    1.3572   -1.7847 H       1  UNL1        0.0272
     35 H          -2.5757   -0.2908   -2.3508 H       1  UNL1        0.0272
     36 H           4.1288    2.6099    1.4111 H       1  UNL1        0.1885
@<TRIPOS>BOND
     1     1     2    1
     2     2     3   ar
     3     3     4   ar
     4     4     5    1
     5     5     6   ar
     6     6     7   ar
     7     7     8   ar
     8     8     9   ar
     9     9    10   ar
    10    10    11    1
    11    11    12    1
    12    12    13    1
    13    13    14    1
    14    14    15    1
    15    15    16    1
    16    10    17   ar
    17    17    18   ar
    18     4    19   ar
    19    19    20   ar
    20    20     2   ar
    21    18     5   ar
    22    18     8   ar
    23    16    11    1
    24     1    21    1
    25     1    22    1
    26     1    23    1
    27     3    24    1
    28    11    25    1
    29    12    26    1
    30    12    27    1
    31    13    28    1
    32    13    29    1
    33    14    30    1
    34    14    31    1
    35    15    32    1
    36    15    33    1
    37    16    34    1
    38    16    35    1
    39    20    36    1
