@<TRIPOS>MOLECULE
*****
 37 39 0 0 0
SMALL
GASTEIGER

@<TRIPOS>ATOM
      1 C          -4.8808   -0.9468    2.3589 C.3     1  UNL1       -0.0227
      2 C          -4.0908   -0.0989    1.4350 C.ar    1  UNL1        0.0361
      3 C          -3.2583    0.9707    1.6843 C.ar    1  UNL1       -0.0165
      4 C          -2.7773    1.3751    0.4193 C.ar    1  UNL1        0.0803
      5 C          -1.8244    2.4865    0.1097 C.3     1  UNL1        0.0572
      6 N          -0.7197    1.9424   -0.6571 N.am    1  UNL1       -0.2935
      7 C           0.4231    1.5252   -0.0070 C.2     1  UNL1        0.3042
      8 O           0.6187    1.7273    1.1838 O.2     1  UNL1       -0.2525
      9 N           1.2795    0.9061   -0.8915 N.am    1  UNL1       -0.2694
     10 C           2.5181    0.2945   -0.6150 C.ar    1  UNL1        0.0385
     11 C           3.0245    0.1134    0.6867 C.ar    1  UNL1       -0.0367
     12 C           4.2615   -0.5097    0.9007 C.ar    1  UNL1       -0.0144
     13 C           4.9630   -0.9416   -0.2012 C.ar    1  UNL1        0.1663
     14 C           4.4747   -0.7735   -1.4735 C.ar    1  UNL1        0.1680
     15 C           3.2602   -0.1638   -1.7136 C.ar    1  UNL1        0.0051
     16 O           5.3149   -1.2696   -2.4216 O.3     1  UNL1       -0.4525
     17 C           6.3905   -1.7653   -1.5966 C.3     1  UNL1        0.2332
     18 O           6.1711   -1.5638   -0.1854 O.3     1  UNL1       -0.4526
     19 N          -3.2689    0.6038   -0.5651 N.ar    1  UNL1       -0.1746
     20 N          -4.0619   -0.2768    0.0760 N.ar    1  UNL1       -0.2713
     21 C          -4.7672   -1.2811   -0.6859 C.3     1  UNL1        0.0305
     22 H          -5.9484   -0.8831    2.1261 H       1  UNL1        0.0292
     23 H          -4.7436   -0.6262    3.3968 H       1  UNL1        0.0292
     24 H          -4.5691   -1.9936    2.2869 H       1  UNL1        0.0292
     25 H          -3.0177    1.3985    2.6481 H       1  UNL1        0.0654
     26 H          -2.3210    3.2326   -0.5192 H       1  UNL1        0.0528
     27 H          -1.4678    2.9784    1.0200 H       1  UNL1        0.0528
     28 H          -1.0433    1.3196   -1.3852 H       1  UNL1        0.1506
     29 H           1.0234    0.9974   -1.8631 H       1  UNL1        0.1564
     30 H           2.4697    0.4467    1.5592 H       1  UNL1        0.0637
     31 H           4.6505   -0.6470    1.9032 H       1  UNL1        0.0656
     32 H           2.9089   -0.0504   -2.7325 H       1  UNL1        0.0674
     33 H           7.3167   -1.2543   -1.8842 H       1  UNL1        0.1166
     34 H           6.5088   -2.8388   -1.7834 H       1  UNL1        0.1166
     35 H          -4.5615   -1.1441   -1.7508 H       1  UNL1        0.0473
     36 H          -4.4185   -2.2653   -0.3640 H       1  UNL1        0.0473
     37 H          -5.8378   -1.1686   -0.4987 H       1  UNL1        0.0473
@<TRIPOS>BOND
     1     1     2    1
     2     2     3   ar
     3     3     4   ar
     4     4     5    1
     5     5     6    1
     6     6     7   am
     7     7     8    2
     8     7     9   am
     9     9    10    1
    10    10    11   ar
    11    11    12   ar
    12    12    13   ar
    13    13    14   ar
    14    14    15   ar
    15    14    16    1
    16    16    17    1
    17    17    18    1
    18     4    19   ar
    19    19    20   ar
    20    20    21    1
    21    20     2   ar
    22    15    10   ar
    23    18    13    1
    24     1    22    1
    25     1    23    1
    26     1    24    1
    27     3    25    1
    28     5    26    1
    29     5    27    1
    30     6    28    1
    31     9    29    1
    32    11    30    1
    33    12    31    1
    34    15    32    1
    35    17    33    1
    36    17    34    1
    37    21    35    1
    38    21    36    1
    39    21    37    1
