@<TRIPOS>MOLECULE
*****
 29 29 0 0 0
SMALL
GASTEIGER

@<TRIPOS>ATOM
      1 C           2.8485    2.0497    1.4827 C.3     1  UNL1       -0.0386
      2 C           2.3584    0.8709    0.6895 C.ar    1  UNL1       -0.0347
      3 C           0.9777    0.7117    0.4819 C.ar    1  UNL1       -0.0351
      4 C           0.4821   -0.3787   -0.2382 C.ar    1  UNL1        0.0518
      5 N          -0.9230   -0.4502   -0.4705 N.pl3   1  UNL1       -0.1969
      6 C          -1.4496    0.1547   -1.7149 C.3     1  UNL1        0.1314
      7 C          -2.6993    0.9629   -1.4432 C.2     1  UNL1        0.3240
      8 O          -3.0856    1.3847   -0.3631 O.2     1  UNL1       -0.2492
      9 O          -3.3829    1.2554   -2.5700 O.3     1  UNL1       -0.4795
     10 S          -1.8096   -1.7267    0.2015 S.O2    1  UNL1        0.0431
     11 C          -2.1354   -1.0937    1.8330 C.3     1  UNL1        0.0738
     12 O          -0.9643   -2.8946    0.3332 O.2     1  UNL1       -0.1552
     13 O          -3.0775   -1.8130   -0.4951 O.2     1  UNL1       -0.1552
     14 C           1.3608   -1.3025   -0.7985 C.ar    1  UNL1       -0.0380
     15 C           2.7345   -1.1603   -0.6002 C.ar    1  UNL1       -0.0457
     16 C           3.2312   -0.0826    0.1407 C.ar    1  UNL1        0.0209
     17 BR          5.1141    0.0357    0.3598 Br      1  UNL1       -0.0500
     18 H           3.4979    2.6815    0.8683 H       1  UNL1        0.0278
     19 H           2.0173    2.6748    1.8268 H       1  UNL1        0.0278
     20 H           3.3920    1.7141    2.3717 H       1  UNL1        0.0278
     21 H           0.2786    1.4410    0.8870 H       1  UNL1        0.0639
     22 H          -1.6631   -0.6329   -2.4457 H       1  UNL1        0.0598
     23 H          -0.7130    0.8364   -2.1555 H       1  UNL1        0.0598
     24 H          -4.1721    1.7422   -2.2507 H       1  UNL1        0.2951
     25 H          -2.6930   -0.1600    1.7560 H       1  UNL1        0.0482
     26 H          -2.7338   -1.8362    2.3658 H       1  UNL1        0.0482
     27 H          -1.1883   -0.9439    2.3542 H       1  UNL1        0.0482
     28 H           0.9874   -2.1428   -1.3784 H       1  UNL1        0.0637
     29 H           3.4098   -1.8974   -1.0282 H       1  UNL1        0.0629
@<TRIPOS>BOND
     1     1     2    1
     2     2     3   ar
     3     3     4   ar
     4     4     5    1
     5     5     6    1
     6     6     7    1
     7     7     8    2
     8     7     9    1
     9     5    10    1
    10    10    11    1
    11    10    12    2
    12    10    13    2
    13     4    14   ar
    14    14    15   ar
    15    15    16   ar
    16    16    17    1
    17    16     2   ar
    18     1    18    1
    19     1    19    1
    20     1    20    1
    21     3    21    1
    22     6    22    1
    23     6    23    1
    24     9    24    1
    25    11    25    1
    26    11    26    1
    27    11    27    1
    28    14    28    1
    29    15    29    1
