@<TRIPOS>MOLECULE
*****
 45 48 0 0 0
SMALL
GASTEIGER

@<TRIPOS>ATOM
      1 C           0.2902    3.7896    1.6269 C.3     1  UNL1       -0.0222
      2 C           0.1628    2.3997    1.0546 C.ar    1  UNL1        0.0439
      3 C          -1.2107    1.9110    0.7527 C.ar    1  UNL1       -0.0005
      4 C          -1.3385    0.6755    0.2300 C.ar    1  UNL1        0.1267
      5 N          -2.6199    0.1575   -0.0963 N.pl3   1  UNL1       -0.3150
      6 C          -2.7805   -0.8453   -1.1712 C.3     1  UNL1        0.0135
      7 C          -4.1808   -0.7435   -1.7764 C.3     1  UNL1       -0.0371
      8 C          -5.2600   -0.8866   -0.7090 C.3     1  UNL1       -0.0502
      9 C          -5.0308    0.1150    0.4174 C.3     1  UNL1       -0.0371
     10 C          -3.6178   -0.0019    0.9818 C.3     1  UNL1        0.0135
     11 N          -0.1411   -0.0771    0.0166 N.ar    1  UNL1       -0.1996
     12 N          -0.0118   -1.3524   -0.4595 N.ar    1  UNL1       -0.1679
     13 C           1.3001   -1.5980   -0.4632 C.ar    1  UNL1        0.0703
     14 C           1.7927   -2.9228   -0.9192 C.3     1  UNL1       -0.0199
     15 C           2.0538   -0.4975    0.0105 C.ar    1  UNL1        0.0490
     16 C           3.4904   -0.3351    0.1609 C.ar    1  UNL1       -0.0126
     17 C           4.0384    0.1207    1.3667 C.ar    1  UNL1       -0.0539
     18 C           5.4213    0.2557    1.5113 C.ar    1  UNL1       -0.0612
     19 C           6.2681   -0.0632    0.4515 C.ar    1  UNL1       -0.0617
     20 C           5.7337   -0.5134   -0.7544 C.ar    1  UNL1       -0.0612
     21 C           4.3506   -0.6487   -0.8998 C.ar    1  UNL1       -0.0539
     22 C           1.1156    0.4653    0.3386 C.ar    1  UNL1        0.1657
     23 N           1.2544    1.7236    0.8616 N.ar    1  UNL1       -0.2323
     24 H           0.7962    3.7355    2.5953 H       1  UNL1        0.0293
     25 H          -0.6863    4.2604    1.7653 H       1  UNL1        0.0293
     26 H           0.8866    4.4053    0.9472 H       1  UNL1        0.0293
     27 H          -2.0550    2.5612    0.9301 H       1  UNL1        0.0670
     28 H          -2.6176   -1.8549   -0.7753 H       1  UNL1        0.0464
     29 H          -2.0597   -0.6648   -1.9772 H       1  UNL1        0.0464
     30 H          -4.3108   -1.5167   -2.5418 H       1  UNL1        0.0280
     31 H          -4.2931    0.2273   -2.2754 H       1  UNL1        0.0280
     32 H          -6.2489   -0.7295   -1.1536 H       1  UNL1        0.0266
     33 H          -5.2454   -1.9060   -0.3046 H       1  UNL1        0.0266
     34 H          -5.7642   -0.0494    1.2146 H       1  UNL1        0.0280
     35 H          -5.1895    1.1316    0.0361 H       1  UNL1        0.0280
     36 H          -3.4782   -0.9765    1.4663 H       1  UNL1        0.0464
     37 H          -3.4908    0.7622    1.7574 H       1  UNL1        0.0464
     38 H           1.0010   -3.6785   -0.8763 H       1  UNL1        0.0293
     39 H           2.1468   -2.8610   -1.9530 H       1  UNL1        0.0293
     40 H           2.6167   -3.2720   -0.2890 H       1  UNL1        0.0293
     41 H           3.3898    0.3771    2.2016 H       1  UNL1        0.0624
     42 H           5.8339    0.6135    2.4507 H       1  UNL1        0.0618
     43 H           7.3436    0.0454    0.5636 H       1  UNL1        0.0618
     44 H           6.3923   -0.7536   -1.5848 H       1  UNL1        0.0618
     45 H           3.9522   -0.9849   -1.8537 H       1  UNL1        0.0624
@<TRIPOS>BOND
     1     1     2    1
     2     2     3   ar
     3     3     4   ar
     4     4     5    1
     5     5     6    1
     6     6     7    1
     7     7     8    1
     8     8     9    1
     9     9    10    1
    10     4    11   ar
    11    11    12   ar
    12    12    13   ar
    13    13    14    1
    14    13    15   ar
    15    15    16    1
    16    16    17   ar
    17    17    18   ar
    18    18    19   ar
    19    19    20   ar
    20    20    21   ar
    21    15    22   ar
    22    22    23   ar
    23    23     2   ar
    24    10     5    1
    25    22    11   ar
    26    21    16   ar
    27     1    24    1
    28     1    25    1
    29     1    26    1
    30     3    27    1
    31     6    28    1
    32     6    29    1
    33     7    30    1
    34     7    31    1
    35     8    32    1
    36     8    33    1
    37     9    34    1
    38     9    35    1
    39    10    36    1
    40    10    37    1
    41    14    38    1
    42    14    39    1
    43    14    40    1
    44    17    41    1
    45    18    42    1
    46    19    43    1
    47    20    44    1
    48    21    45    1
