@<TRIPOS>MOLECULE
*****
 35 38 0 0 0
SMALL
GASTEIGER

@<TRIPOS>ATOM
      1 C          -0.6221    4.8271   -1.7785 C.3     1  UNL1       -0.0205
      2 C          -0.5630    3.4440   -1.2470 C.ar    1  UNL1        0.0623
      3 C          -1.5934    2.4816   -1.2234 C.ar    1  UNL1        0.0013
      4 C          -1.0434    1.3674   -0.6315 C.ar    1  UNL1        0.1309
      5 N          -1.5732    0.1184   -0.3383 N.am    1  UNL1       -0.2700
      6 C          -2.8647   -0.2501   -0.6309 C.2     1  UNL1        0.2213
      7 O          -3.7350    0.4306   -1.1537 O.2     1  UNL1       -0.2751
      8 C          -3.1812   -1.6424   -0.2074 C.3     1  UNL1        0.0360
      9 C          -2.3172   -2.8115   -0.6236 C.3     1  UNL1       -0.0412
     10 C          -3.6772   -2.6371   -1.2317 C.3     1  UNL1       -0.0412
     11 N           0.2749    1.7048   -0.3331 N.ar    1  UNL1       -0.1937
     12 C           1.2462    0.8938    0.2746 C.ar    1  UNL1        0.1965
     13 N           1.0008   -0.3478    0.6500 N.ar    1  UNL1       -0.2210
     14 C           2.1520   -0.8804    1.2116 C.ar    1  UNL1        0.0805
     15 C           2.2896   -2.1837    1.7311 C.ar    1  UNL1       -0.0351
     16 C           3.5142   -2.5918    2.2705 C.ar    1  UNL1       -0.0597
     17 C           4.5983   -1.7202    2.2981 C.ar    1  UNL1       -0.0606
     18 C           4.4886   -0.4225    1.7895 C.ar    1  UNL1       -0.0458
     19 C           3.2552   -0.0220    1.2500 C.ar    1  UNL1        0.0410
     20 S           2.8135    1.4926    0.5562 S.2     1  UNL1       -0.0478
     21 N           0.5691    2.9791   -0.7088 N.ar    1  UNL1       -0.1681
     22 H          -1.6139    5.0528   -2.1832 H       1  UNL1        0.0293
     23 H           0.1099    4.9613   -2.5814 H       1  UNL1        0.0293
     24 H          -0.4063    5.5520   -0.9870 H       1  UNL1        0.0293
     25 H          -2.6046    2.5927   -1.5911 H       1  UNL1        0.0670
     26 H          -0.9553   -0.5556    0.1140 H       1  UNL1        0.1562
     27 H          -3.6573   -1.6930    0.7669 H       1  UNL1        0.0394
     28 H          -1.4604   -2.6347   -1.2646 H       1  UNL1        0.0273
     29 H          -2.1796   -3.6177    0.0877 H       1  UNL1        0.0273
     30 H          -3.7407   -2.3149   -2.2658 H       1  UNL1        0.0273
     31 H          -4.4664   -3.3167   -0.9322 H       1  UNL1        0.0273
     32 H           1.4442   -2.8640    1.7100 H       1  UNL1        0.0639
     33 H           3.6173   -3.5980    2.6707 H       1  UNL1        0.0618
     34 H           5.5452   -2.0508    2.7207 H       1  UNL1        0.0618
     35 H           5.3358    0.2567    1.8117 H       1  UNL1        0.0629
@<TRIPOS>BOND
     1     1     2    1
     2     2     3   ar
     3     3     4   ar
     4     4     5    1
     5     5     6   am
     6     6     7    2
     7     6     8    1
     8     8     9    1
     9     9    10    1
    10     4    11   ar
    11    11    12    1
    12    12    13   ar
    13    13    14   ar
    14    14    15   ar
    15    15    16   ar
    16    16    17   ar
    17    17    18   ar
    18    18    19   ar
    19    19    20   ar
    20    11    21   ar
    21    21     2   ar
    22    10     8    1
    23    20    12   ar
    24    19    14   ar
    25     1    22    1
    26     1    23    1
    27     1    24    1
    28     3    25    1
    29     5    26    1
    30     8    27    1
    31     9    28    1
    32     9    29    1
    33    10    30    1
    34    10    31    1
    35    15    32    1
    36    16    33    1
    37    17    34    1
    38    18    35    1
