@<TRIPOS>MOLECULE
*****
 31 33 0 0 0
SMALL
GASTEIGER

@<TRIPOS>ATOM
      1 C           6.4744    0.7873    0.5153 C.3     1  UNL1       -0.0036
      2 C           5.0734    0.6949    0.0722 C.ar    1  UNL1        0.1361
      3 C           3.9074    0.2701    0.6580 C.ar    1  UNL1        0.0221
      4 C           2.9226    0.4527   -0.3367 C.ar    1  UNL1        0.1681
      5 N           1.5701    0.1938   -0.2922 N.am    1  UNL1       -0.2637
      6 C           0.9076   -0.3645    0.7757 C.2     1  UNL1        0.2495
      7 O           1.4221   -0.7485    1.8205 O.2     1  UNL1       -0.2698
      8 C          -0.5628   -0.5337    0.5981 C.ar    1  UNL1        0.0407
      9 C          -1.1921   -1.6051    1.2494 C.ar    1  UNL1       -0.0459
     10 C          -2.5688   -1.8002    1.1175 C.ar    1  UNL1       -0.0156
     11 C          -3.3216   -0.9188    0.3460 C.ar    1  UNL1        0.1621
     12 C          -2.6965    0.1449   -0.3136 C.ar    1  UNL1        0.1628
     13 C          -1.3240    0.3525   -0.1749 C.ar    1  UNL1       -0.0042
     14 O          -3.3723    1.0372   -1.1068 O.3     1  UNL1       -0.4849
     15 C          -4.6766    0.5515   -1.4480 C.3     1  UNL1        0.1237
     16 C          -5.3764   -0.0158   -0.2241 C.3     1  UNL1        0.1237
     17 O          -4.6700   -1.1564    0.2776 O.3     1  UNL1       -0.4849
     18 N           3.4589    0.9592   -1.4531 N.ar    1  UNL1       -0.0628
     19 O           4.8090    1.1092   -1.1945 O.2     1  UNL1       -0.3581
     20 H           7.1207    0.1803   -0.1260 H       1  UNL1        0.0309
     21 H           6.8224    1.8240    0.4743 H       1  UNL1        0.0309
     22 H           6.5854    0.4316    1.5443 H       1  UNL1        0.0309
     23 H           3.7895   -0.1158    1.6594 H       1  UNL1        0.0687
     24 H           1.0959    0.3966   -1.1603 H       1  UNL1        0.1566
     25 H          -0.6103   -2.2900    1.8642 H       1  UNL1        0.0626
     26 H          -3.0532   -2.6289    1.6272 H       1  UNL1        0.0655
     27 H          -0.8770    1.2152   -0.6594 H       1  UNL1        0.0663
     28 H          -4.5711   -0.2041   -2.2364 H       1  UNL1        0.0731
     29 H          -5.2472    1.3921   -1.8549 H       1  UNL1        0.0731
     30 H          -5.4506    0.7292    0.5778 H       1  UNL1        0.0731
     31 H          -6.3890   -0.3405   -0.4833 H       1  UNL1        0.0731
@<TRIPOS>BOND
     1     1     2    1
     2     2     3   ar
     3     3     4   ar
     4     4     5    1
     5     5     6   am
     6     6     7    2
     7     6     8    1
     8     8     9   ar
     9     9    10   ar
    10    10    11   ar
    11    11    12   ar
    12    12    13   ar
    13    12    14    1
    14    14    15    1
    15    15    16    1
    16    16    17    1
    17     4    18   ar
    18    18    19   ar
    19    19     2   ar
    20    13     8   ar
    21    17    11    1
    22     1    20    1
    23     1    21    1
    24     1    22    1
    25     3    23    1
    26     5    24    1
    27     9    25    1
    28    10    26    1
    29    13    27    1
    30    15    28    1
    31    15    29    1
    32    16    30    1
    33    16    31    1
