@<TRIPOS>MOLECULE
*****
 34 36 0 0 0
SMALL
GASTEIGER

@<TRIPOS>ATOM
      1 C           6.8075   -0.1910   -1.0565 C.3     1  UNL1       -0.0036
      2 C           5.5410    0.0260   -0.3374 C.ar    1  UNL1        0.1361
      3 C           4.2417   -0.3667   -0.5408 C.ar    1  UNL1        0.0221
      4 C           3.5278    0.1939    0.5404 C.ar    1  UNL1        0.1679
      5 N           2.1858    0.1191    0.8403 N.am    1  UNL1       -0.2677
      6 C           1.2412   -0.5516    0.0974 C.2     1  UNL1        0.2200
      7 O           1.4501   -1.1635   -0.9447 O.2     1  UNL1       -0.2754
      8 C          -0.1438   -0.4241    0.6958 C.3     1  UNL1        0.0424
      9 C          -1.1423   -1.3258   -0.0224 C.3     1  UNL1        0.0355
     10 N          -2.4843   -1.1695    0.5078 N.ar    1  UNL1       -0.3014
     11 C          -2.9063   -1.8855    1.6212 C.ar    1  UNL1        0.2916
     12 O          -2.2572   -2.6990    2.2603 O.2     1  UNL1       -0.2594
     13 S          -4.5655   -1.4290    2.0387 S.2     1  UNL1       -0.0266
     14 C          -4.6171   -0.2425    0.7276 C.ar    1  UNL1        0.0407
     15 C          -5.6634    0.6050    0.3991 C.ar    1  UNL1       -0.0459
     16 C          -5.4955    1.4817   -0.6736 C.ar    1  UNL1       -0.0606
     17 C          -4.2931    1.4985   -1.3945 C.ar    1  UNL1       -0.0597
     18 C          -3.2436    0.6385   -1.0534 C.ar    1  UNL1       -0.0370
     19 C          -3.4174   -0.2338    0.0132 C.ar    1  UNL1        0.0592
     20 N           4.3435    0.8836    1.3456 N.ar    1  UNL1       -0.0628
     21 O           5.6064    0.7769    0.7930 O.2     1  UNL1       -0.3581
     22 H           7.5307   -0.7027   -0.4142 H       1  UNL1        0.0309
     23 H           7.2392    0.7643   -1.3705 H       1  UNL1        0.0309
     24 H           6.6522   -0.8041   -1.9496 H       1  UNL1        0.0309
     25 H           3.8700   -0.9729   -1.3531 H       1  UNL1        0.0687
     26 H           1.9312    0.6043    1.6903 H       1  UNL1        0.1563
     27 H          -0.4532    0.6249    0.6191 H       1  UNL1        0.0376
     28 H          -0.0996   -0.6845    1.7600 H       1  UNL1        0.0376
     29 H          -1.1481   -1.1512   -1.1037 H       1  UNL1        0.0498
     30 H          -0.8415   -2.3727    0.1140 H       1  UNL1        0.0498
     31 H          -6.5923    0.5906    0.9607 H       1  UNL1        0.0629
     32 H          -6.3021    2.1564   -0.9525 H       1  UNL1        0.0618
     33 H          -4.1771    2.1872   -2.2291 H       1  UNL1        0.0618
     34 H          -2.3250    0.6717   -1.6286 H       1  UNL1        0.0638
@<TRIPOS>BOND
     1     1     2    1
     2     2     3   ar
     3     3     4   ar
     4     4     5    1
     5     5     6   am
     6     6     7    2
     7     6     8    1
     8     8     9    1
     9     9    10    1
    10    10    11   ar
    11    11    12    2
    12    11    13   ar
    13    13    14   ar
    14    14    15   ar
    15    15    16   ar
    16    16    17   ar
    17    17    18   ar
    18    18    19   ar
    19     4    20   ar
    20    20    21   ar
    21    21     2   ar
    22    19    10   ar
    23    19    14   ar
    24     1    22    1
    25     1    23    1
    26     1    24    1
    27     3    25    1
    28     5    26    1
    29     8    27    1
    30     8    28    1
    31     9    29    1
    32     9    30    1
    33    15    31    1
    34    16    32    1
    35    17    33    1
    36    18    34    1
