@<TRIPOS>MOLECULE
*****
 44 51 0 0 0
SMALL
GASTEIGER

@<TRIPOS>ATOM
      1 SI         -5.5055    1.8903    1.3422 Si      1  UNL1        0.0000
      2 C          -6.3695    0.8135    0.0778 C.2     1  UNL1        0.0000
      3 C          -5.4780    0.0612   -0.5933 C.ar    1  UNL1        0.0000
      4 C          -5.8027   -0.8775   -1.6477 C.ar    1  UNL1        0.0000
      5 C          -4.8033   -1.5585   -2.2387 C.ar    1  UNL1        0.0000
      6 C          -3.4055   -1.3828   -1.8477 C.ar    1  UNL1        0.0000
      7 C          -3.0194   -0.5339   -0.8657 C.ar    1  UNL1        0.0000
      8 C          -1.5906   -0.4444   -0.5655 C.ar    1  UNL1        0.0000
      9 C          -0.6609    0.2870   -1.3479 C.ar    1  UNL1        0.0000
     10 C           0.7202    0.3466   -0.9969 C.ar    1  UNL1        0.0000
     11 S           2.0191    1.1720   -1.8003 S.2     1  UNL1        0.0000
     12 C           3.1644    0.6129   -0.6112 C.ar    1  UNL1        0.0000
     13 C           2.5827   -0.1725    0.3629 C.ar    1  UNL1        0.0000
     14 N           3.5551   -0.5747    1.2658 N.ar    1  UNL1        0.0000
     15 C           4.7716   -0.0527    0.8825 C.ar    1  UNL1        0.0000
     16 C           6.0588   -0.1502    1.4360 C.ar    1  UNL1        0.0000
     17 C           7.1314    0.5136    0.7977 C.ar    1  UNL1        0.0000
     18 C           6.8549    1.2543   -0.3835 C.ar    1  UNL1        0.0000
     19 N           7.7488    1.9450   -1.1183 N.ar    1  UNL1        0.0000
     20 S           6.8946    2.6252   -2.3941 S.2     1  UNL1        0.0000
     21 N           5.3444    2.0707   -2.0691 N.ar    1  UNL1        0.0000
     22 C           5.5244    1.3632   -0.9676 C.ar    1  UNL1        0.0000
     23 C           4.5157    0.6659   -0.2595 C.ar    1  UNL1        0.0000
     24 C           1.2145   -0.3011    0.1175 C.ar    1  UNL1        0.0000
     25 C           0.3364   -1.0478    0.9439 C.ar    1  UNL1        0.0000
     26 C           0.5001   -1.7785    2.0780 C.ar    1  UNL1        0.0000
     27 O          -0.7290   -2.2806    2.4289 O.2     1  UNL1        0.0000
     28 C          -1.6371   -1.8462    1.4946 C.ar    1  UNL1        0.0000
     29 C          -1.0131   -1.0685    0.5457 C.ar    1  UNL1        0.0000
     30 C          -4.0622    0.2457   -0.1911 C.ar    1  UNL1        0.0000
     31 C          -3.8774    1.1510    0.7912 C.2     1  UNL1        0.0000
     32 H          -5.6124    3.3341    1.0215 H       1  UNL1        0.0000
     33 H          -5.8553    1.5149    2.7335 H       1  UNL1        0.0000
     34 H          -7.4391    0.8398   -0.0533 H       1  UNL1        0.0000
     35 H          -6.8358   -1.0150   -1.9455 H       1  UNL1        0.0000
     36 H          -5.0136   -2.2678   -3.0333 H       1  UNL1        0.0000
     37 H          -2.6801   -1.9849   -2.3897 H       1  UNL1        0.0000
     38 H          -1.0075    0.8195   -2.2321 H       1  UNL1        0.0000
     39 H           3.3694   -1.1596    2.0692 H       1  UNL1        0.0000
     40 H           6.2386   -0.7248    2.3411 H       1  UNL1        0.0000
     41 H           8.1404    0.4636    1.1924 H       1  UNL1        0.0000
     42 H           1.3128   -2.0471    2.7345 H       1  UNL1        0.0000
     43 H          -2.6552   -2.1746    1.6545 H       1  UNL1        0.0000
     44 H          -2.9451    1.4535    1.2407 H       1  UNL1        0.0000
@<TRIPOS>BOND
     1     1     2    1
     2     2     3    2
     3     3     4   ar
     4     4     5   ar
     5     5     6   ar
     6     6     7   ar
     7     7     8    1
     8     8     9   ar
     9     9    10   ar
    10    10    11   ar
    11    11    12   ar
    12    12    13   ar
    13    13    14   ar
    14    14    15   ar
    15    15    16   ar
    16    16    17   ar
    17    17    18   ar
    18    18    19   ar
    19    19    20   ar
    20    20    21   ar
    21    21    22   ar
    22    22    23   ar
    23    13    24   ar
    24    24    25   ar
    25    25    26   ar
    26    26    27   ar
    27    27    28   ar
    28    28    29   ar
    29     7    30   ar
    30    30    31    2
    31    31     1    1
    32    30     3   ar
    33    29     8   ar
    34    24    10   ar
    35    29    25   ar
    36    23    12   ar
    37    23    15   ar
    38    22    18   ar
    39     1    32    1
    40     1    33    1
    41     2    34    1
    42     4    35    1
    43     5    36    1
    44     6    37    1
    45     9    38    1
    46    14    39    1
    47    16    40    1
    48    17    41    1
    49    26    42    1
    50    28    43    1
    51    31    44    1
