@<TRIPOS>MOLECULE
*****
 31 33 0 0 0
SMALL
GASTEIGER

@<TRIPOS>ATOM
      1 C           4.6032   -2.2073    0.1689 C.3     1  UNL1       -0.0221
      2 C           3.5903   -1.1021    0.3428 C.ar    1  UNL1        0.0453
      3 C           2.4436   -1.0723   -0.6141 C.ar    1  UNL1       -0.0003
      4 C           1.5117   -0.1153   -0.4376 C.ar    1  UNL1        0.1299
      5 N           0.4137    0.0052   -1.2895 N.pl3   1  UNL1       -0.2992
      6 C          -0.9522    0.0701   -0.9192 C.ar    1  UNL1        0.0351
      7 C          -1.4166   -0.0758    0.3938 C.ar    1  UNL1       -0.0401
      8 C          -2.7813    0.0275    0.6970 C.ar    1  UNL1       -0.0544
      9 C          -3.7120    0.2988   -0.3085 C.ar    1  UNL1       -0.0151
     10 C          -5.1758    0.3902   -0.0081 C.3     1  UNL1       -0.0370
     11 C          -3.2483    0.4466   -1.6146 C.ar    1  UNL1        0.1280
     12 F          -4.1162    0.6934   -2.6068 F       1  UNL1       -0.2052
     13 C          -1.8927    0.3442   -1.9208 C.ar    1  UNL1       -0.0050
     14 N           1.7330    0.8309    0.5979 N.ar    1  UNL1       -0.1823
     15 N           1.0168    1.9366    0.9482 N.ar    1  UNL1       -0.1506
     16 C           1.7172    2.4184    1.9708 C.ar    1  UNL1        0.1406
     17 N           2.8322    1.7232    2.3097 N.ar    1  UNL1       -0.1974
     18 C           2.8540    0.7354    1.4414 C.ar    1  UNL1        0.2547
     19 N           3.7792   -0.2576    1.3097 N.ar    1  UNL1       -0.2158
     20 H           4.6350   -2.8130    1.0793 H       1  UNL1        0.0293
     21 H           4.3543   -2.8536   -0.6765 H       1  UNL1        0.0293
     22 H           5.5904   -1.7678   -0.0015 H       1  UNL1        0.0293
     23 H           2.3874   -1.8239   -1.3893 H       1  UNL1        0.0670
     24 H           0.5108   -0.5076   -2.1628 H       1  UNL1        0.1536
     25 H          -0.7321   -0.2827    1.2113 H       1  UNL1        0.0636
     26 H          -3.1041   -0.0984    1.7283 H       1  UNL1        0.0622
     27 H          -5.6291    1.2283   -0.5477 H       1  UNL1        0.0278
     28 H          -5.3519    0.5577    1.0596 H       1  UNL1        0.0278
     29 H          -5.6774   -0.5374   -0.3008 H       1  UNL1        0.0278
     30 H          -1.5840    0.4937   -2.9506 H       1  UNL1        0.0665
     31 H           1.4012    3.3146    2.4898 H       1  UNL1        0.1066
@<TRIPOS>BOND
     1     1     2    1
     2     2     3   ar
     3     3     4   ar
     4     4     5    1
     5     5     6    1
     6     6     7   ar
     7     7     8   ar
     8     8     9   ar
     9     9    10    1
    10     9    11   ar
    11    11    12    1
    12    11    13   ar
    13     4    14   ar
    14    14    15   ar
    15    15    16   ar
    16    16    17   ar
    17    17    18   ar
    18    18    19   ar
    19    19     2   ar
    20    13     6   ar
    21    18    14   ar
    22     1    20    1
    23     1    21    1
    24     1    22    1
    25     3    23    1
    26     5    24    1
    27     7    25    1
    28     8    26    1
    29    10    27    1
    30    10    28    1
    31    10    29    1
    32    13    30    1
    33    16    31    1
