@<TRIPOS>MOLECULE
*****
 29 31 0 0 0
SMALL
GASTEIGER

@<TRIPOS>ATOM
      1 C          -3.5654   -2.0577   -0.3880 C.3     1  UNL1       -0.0221
      2 C          -2.9133   -0.7037   -0.2510 C.ar    1  UNL1        0.0453
      3 C          -1.4609   -0.6818    0.1085 C.ar    1  UNL1       -0.0003
      4 C          -0.8700    0.5235    0.2071 C.ar    1  UNL1        0.1299
      5 N           0.4536    0.7668    0.5565 N.pl3   1  UNL1       -0.2992
      6 C           1.6142    0.0349    0.2329 C.ar    1  UNL1        0.0358
      7 C           1.6600   -0.9576   -0.7544 C.ar    1  UNL1       -0.0403
      8 C           2.8368   -1.6724   -1.0033 C.ar    1  UNL1       -0.0566
      9 C           3.9836   -1.4087   -0.2604 C.ar    1  UNL1       -0.0201
     10 C           3.9476   -0.4312    0.7234 C.ar    1  UNL1        0.1186
     11 O           5.0899   -0.2042    1.4333 O.3     1  UNL1       -0.5067
     12 C           2.7798    0.2872    0.9746 C.ar    1  UNL1        0.0010
     13 N          -1.6819    1.6603    0.0074 N.ar    1  UNL1       -0.1823
     14 N          -1.3289    2.9746    0.0924 N.ar    1  UNL1       -0.1506
     15 C          -2.4814    3.5809   -0.1926 C.ar    1  UNL1        0.1406
     16 N          -3.5403    2.7651   -0.4450 N.ar    1  UNL1       -0.1974
     17 C          -3.0380    1.5562   -0.3158 C.ar    1  UNL1        0.2547
     18 N          -3.6525    0.3466   -0.4513 N.ar    1  UNL1       -0.2158
     19 H          -4.3698   -2.1456    0.3482 H       1  UNL1        0.0293
     20 H          -2.8498   -2.8681   -0.2283 H       1  UNL1        0.0293
     21 H          -3.9889   -2.1540   -1.3920 H       1  UNL1        0.0293
     22 H          -0.9486   -1.6146    0.2988 H       1  UNL1        0.0670
     23 H           0.6433    1.7664    0.6801 H       1  UNL1        0.1536
     24 H           0.7956   -1.1697   -1.3757 H       1  UNL1        0.0636
     25 H           2.8587   -2.4302   -1.7822 H       1  UNL1        0.0619
     26 H           4.9005   -1.9599   -0.4486 H       1  UNL1        0.0654
     27 H           4.9197    0.4957    2.0848 H       1  UNL1        0.2921
     28 H           2.7602    1.0399    1.7571 H       1  UNL1        0.0673
     29 H          -2.5540    4.6612   -0.2166 H       1  UNL1        0.1066
@<TRIPOS>BOND
     1     1     2    1
     2     2     3   ar
     3     3     4   ar
     4     4     5    1
     5     5     6    1
     6     6     7   ar
     7     7     8   ar
     8     8     9   ar
     9     9    10   ar
    10    10    11    1
    11    10    12   ar
    12     4    13   ar
    13    13    14   ar
    14    14    15   ar
    15    15    16   ar
    16    16    17   ar
    17    17    18   ar
    18    18     2   ar
    19    12     6   ar
    20    17    13   ar
    21     1    19    1
    22     1    20    1
    23     1    21    1
    24     3    22    1
    25     5    23    1
    26     7    24    1
    27     8    25    1
    28     9    26    1
    29    11    27    1
    30    12    28    1
    31    15    29    1
