@<TRIPOS>MOLECULE
*****
 33 35 0 0 0
SMALL
GASTEIGER

@<TRIPOS>ATOM
      1 C          -2.6534    3.6093    0.2693 C.3     1  UNL1       -0.0395
      2 C          -2.2117    2.1769    0.2518 C.ar    1  UNL1       -0.0435
      3 C          -0.8584    1.8463    0.3486 C.ar    1  UNL1       -0.0155
      4 C          -0.4497    0.5000    0.3430 C.ar    1  UNL1        0.1432
      5 O           0.9271    0.2619    0.4699 O.3     1  UNL1       -0.4195
      6 C           1.6689    0.5232   -0.6836 C.2     1  UNL1        0.3801
      7 O           1.2022    0.8860   -1.7574 O.2     1  UNL1       -0.2410
      8 C           3.0670    0.2855   -0.4015 C.ar    1  UNL1        0.2116
      9 C           3.7407   -0.1118    0.7421 C.ar    1  UNL1       -0.0093
     10 C           5.1157   -0.1766    0.4092 C.ar    1  UNL1       -0.0231
     11 C           5.2045    0.1836   -0.9134 C.ar    1  UNL1        0.0929
     12 O           3.9750    0.4647   -1.4128 O.2     1  UNL1       -0.4563
     13 C          -1.3708   -0.5599    0.2969 C.ar    1  UNL1        0.0628
     14 C          -1.0582   -2.0034    0.3386 C.ar    1  UNL1       -0.0295
     15 C           0.3503   -2.5048    0.4563 C.3     1  UNL1       -0.0387
     16 C          -2.0711   -2.8822    0.2766 C.ar    1  UNL1        0.0266
     17 C          -3.4842   -2.4987    0.1729 C.ar    1  UNL1        0.3375
     18 O          -4.3638   -3.3498    0.1177 O.2     1  UNL1       -0.2452
     19 O          -3.7548   -1.1459    0.1516 O.2     1  UNL1       -0.4220
     20 C          -2.7191   -0.1897    0.2135 C.ar    1  UNL1        0.1431
     21 C          -3.1463    1.1440    0.1923 C.ar    1  UNL1       -0.0155
     22 H          -1.9014    4.2552   -0.1962 H       1  UNL1        0.0278
     23 H          -2.8140    3.9390    1.3003 H       1  UNL1        0.0278
     24 H          -3.5844    3.7383   -0.2927 H       1  UNL1        0.0278
     25 H          -0.1127    2.6357    0.4157 H       1  UNL1        0.0657
     26 H           3.2910   -0.3277    1.7020 H       1  UNL1        0.0657
     27 H           5.9406   -0.4507    1.0522 H       1  UNL1        0.0649
     28 H           6.0255    0.2849   -1.6103 H       1  UNL1        0.1029
     29 H           0.3896   -3.5982    0.5258 H       1  UNL1        0.0278
     30 H           0.9384   -2.2266   -0.4232 H       1  UNL1        0.0278
     31 H           0.8318   -2.1187    1.3604 H       1  UNL1        0.0278
     32 H          -1.9043   -3.9537    0.3018 H       1  UNL1        0.0692
     33 H          -4.2099    1.3638    0.1313 H       1  UNL1        0.0657
@<TRIPOS>BOND
     1     1     2    1
     2     2     3   ar
     3     3     4   ar
     4     4     5    1
     5     5     6    1
     6     6     7    2
     7     6     8    1
     8     8     9   ar
     9     9    10   ar
    10    10    11   ar
    11    11    12   ar
    12     4    13   ar
    13    13    14   ar
    14    14    15    1
    15    14    16   ar
    16    16    17   ar
    17    17    18    2
    18    17    19   ar
    19    19    20   ar
    20    20    21   ar
    21    21     2   ar
    22    12     8   ar
    23    20    13   ar
    24     1    22    1
    25     1    23    1
    26     1    24    1
    27     3    25    1
    28     9    26    1
    29    10    27    1
    30    11    28    1
    31    15    29    1
    32    15    30    1
    33    15    31    1
    34    16    32    1
    35    21    33    1
