@<TRIPOS>MOLECULE
*****
 41 42 0 0 0
SMALL
GASTEIGER

@<TRIPOS>ATOM
      1 C           6.0842    1.1710   -0.7849 C.3     1  UNL1       -0.0332
      2 C           4.9005    0.3743   -0.3140 C.ar    1  UNL1        0.0300
      3 C           3.6076    0.8199   -0.6382 C.ar    1  UNL1       -0.0106
      4 C           2.4626    0.1252   -0.2238 C.ar    1  UNL1        0.1219
      5 O           1.2852    0.6961   -0.6169 O.3     1  UNL1       -0.4828
      6 C           0.0780    0.0551   -0.2211 C.3     1  UNL1        0.1653
      7 C          -1.1511    0.8325   -0.7198 C.2     1  UNL1        0.2532
      8 O          -1.0423    1.9512   -1.2261 O.2     1  UNL1       -0.2719
      9 N          -2.3984    0.2090   -0.5677 N.am    1  UNL1       -0.2987
     10 C          -2.5680   -1.0946    0.0709 C.3     1  UNL1        0.0148
     11 C          -3.9617   -1.4222    0.6053 C.3     1  UNL1       -0.0371
     12 C          -4.5180   -0.3607    1.5531 C.3     1  UNL1       -0.0516
     13 C          -5.2294    0.7808    0.8285 C.3     1  UNL1       -0.0516
     14 C          -4.3302    1.6574   -0.0404 C.3     1  UNL1       -0.0371
     15 C          -3.5715    0.8875   -1.1175 C.3     1  UNL1        0.0148
     16 C           2.5986   -1.0429    0.5256 C.ar    1  UNL1       -0.0135
     17 C           3.8718   -1.5174    0.8517 C.ar    1  UNL1        0.0193
     18 C           5.0096   -0.8155    0.4247 C.ar    1  UNL1        0.2762
     19 N           6.3118   -1.3711    0.7821 N.pl3   1  UNL1        0.0799
     20 O           6.4635   -1.7407    1.9552 O.2     1  UNL1        0.0414
     21 O           7.1649   -1.4606   -0.1107 O.co2   1  UNL1       -0.5760
     22 H           5.7863    2.1803   -1.0896 H       1  UNL1        0.0280
     23 H           6.8197    1.2898    0.0172 H       1  UNL1        0.0280
     24 H           6.5515    0.6842   -1.6463 H       1  UNL1        0.0280
     25 H           3.4756    1.7312   -1.2219 H       1  UNL1        0.0659
     26 H           0.0441   -0.9510   -0.6538 H       1  UNL1        0.0795
     27 H           0.0229    0.0246    0.8730 H       1  UNL1        0.0795
     28 H          -2.2838   -1.8494   -0.6720 H       1  UNL1        0.0464
     29 H          -1.8547   -1.1788    0.8971 H       1  UNL1        0.0464
     30 H          -4.6609   -1.6027   -0.2196 H       1  UNL1        0.0280
     31 H          -3.8889   -2.3719    1.1505 H       1  UNL1        0.0280
     32 H          -3.7287    0.0313    2.2052 H       1  UNL1        0.0266
     33 H          -5.2542   -0.8430    2.2084 H       1  UNL1        0.0266
     34 H          -5.7121    1.4207    1.5776 H       1  UNL1        0.0266
     35 H          -6.0382    0.3698    0.2110 H       1  UNL1        0.0266
     36 H          -3.6291    2.2107    0.5965 H       1  UNL1        0.0280
     37 H          -4.9676    2.4039   -0.5302 H       1  UNL1        0.0280
     38 H          -3.2508    1.5995   -1.8865 H       1  UNL1        0.0464
     39 H          -4.2068    0.1580   -1.6316 H       1  UNL1        0.0464
     40 H           1.7394   -1.6092    0.8694 H       1  UNL1        0.0656
     41 H           3.9687   -2.4326    1.4330 H       1  UNL1        0.0686
@<TRIPOS>UNITY_ATOM_ATTR
19 1
charge 1
21 1
charge -1
@<TRIPOS>BOND
     1     1     2    1
     2     2     3   ar
     3     3     4   ar
     4     4     5    1
     5     5     6    1
     6     6     7    1
     7     7     8    2
     8     7     9   am
     9     9    10    1
    10    10    11    1
    11    11    12    1
    12    12    13    1
    13    13    14    1
    14    14    15    1
    15     4    16   ar
    16    16    17   ar
    17    17    18   ar
    18    18    19    1
    19    19    20    2
    20    19    21    1
    21    18     2   ar
    22    15     9    1
    23     1    22    1
    24     1    23    1
    25     1    24    1
    26     3    25    1
    27     6    26    1
    28     6    27    1
    29    10    28    1
    30    10    29    1
    31    11    30    1
    32    11    31    1
    33    12    32    1
    34    12    33    1
    35    13    34    1
    36    13    35    1
    37    14    36    1
    38    14    37    1
    39    15    38    1
    40    15    39    1
    41    16    40    1
    42    17    41    1
