@<TRIPOS>MOLECULE
*****
 40 41 0 0 0
SMALL
GASTEIGER

@<TRIPOS>ATOM
      1 C          -0.3295    2.7714    2.1762 C.3     1  UNL1       -0.0221
      2 C          -0.7911    2.1235    0.9067 C.ar    1  UNL1        0.0453
      3 C          -0.8382    0.7480    0.8026 C.ar    1  UNL1        0.0210
      4 C          -1.2623    0.2422   -0.4067 C.ar    1  UNL1        0.2185
      5 O          -1.3360   -1.0911   -0.7017 O.3     1  UNL1       -0.4668
      6 C          -1.7293   -1.9407    0.3671 C.3     1  UNL1        0.1671
      7 C          -0.5372   -2.5611    1.0977 C.2     1  UNL1        0.2550
      8 O          -0.6124   -2.8501    2.2882 O.2     1  UNL1       -0.2717
      9 N           0.5540   -2.7480    0.2729 N.am    1  UNL1       -0.2804
     10 C           1.8063   -3.3071    0.5994 C.ar    1  UNL1        0.0691
     11 C           2.1364   -3.8212    1.8536 C.ar    1  UNL1       -0.0377
     12 C           3.4098   -4.3578    2.0829 C.ar    1  UNL1       -0.0598
     13 C           4.3607   -4.3871    1.0619 C.ar    1  UNL1       -0.0589
     14 C           4.0402   -3.8804   -0.1946 C.ar    1  UNL1       -0.0246
     15 C           2.7728   -3.3484   -0.4139 C.ar    1  UNL1        0.1445
     16 F           2.4750   -2.8645   -1.6309 F       1  UNL1       -0.2035
     17 N          -1.5867    1.0201   -1.4498 N.ar    1  UNL1       -0.1977
     18 C          -1.5109    2.3484   -1.2653 C.ar    1  UNL1        0.1356
     19 C          -1.8853    3.2353   -2.4315 C.3     1  UNL1        0.0134
     20 C          -0.7391    4.1767   -2.7976 C.3     1  UNL1       -0.0557
     21 C          -3.1634    4.0157   -2.1261 C.3     1  UNL1       -0.0557
     22 N          -1.1299    2.9343   -0.1138 N.ar    1  UNL1       -0.2367
     23 H          -0.9622    2.4622    3.0141 H       1  UNL1        0.0293
     24 H           0.7065    2.4918    2.3879 H       1  UNL1        0.0293
     25 H          -0.3780    3.8624    2.0958 H       1  UNL1        0.0293
     26 H          -0.5349    0.1268    1.6334 H       1  UNL1        0.0689
     27 H          -2.3868   -1.4325    1.0842 H       1  UNL1        0.0795
     28 H          -2.3044   -2.7669   -0.0640 H       1  UNL1        0.0795
     29 H           0.4616   -2.4089   -0.6845 H       1  UNL1        0.1550
     30 H           1.4269   -3.8249    2.6752 H       1  UNL1        0.0637
     31 H           3.6548   -4.7594    3.0639 H       1  UNL1        0.0618
     32 H           5.3462   -4.8077    1.2473 H       1  UNL1        0.0618
     33 H           4.7641   -3.8982   -1.0036 H       1  UNL1        0.0647
     34 H          -2.0816    2.5946   -3.3015 H       1  UNL1        0.0374
     35 H           0.1715    3.6134   -3.0286 H       1  UNL1        0.0236
     36 H          -0.9972    4.7756   -3.6780 H       1  UNL1        0.0236
     37 H          -0.5043    4.8672   -1.9804 H       1  UNL1        0.0236
     38 H          -3.4605    4.6224   -2.9877 H       1  UNL1        0.0236
     39 H          -3.0344    4.6879   -1.2697 H       1  UNL1        0.0236
     40 H          -3.9913    3.3360   -1.8931 H       1  UNL1        0.0236
@<TRIPOS>BOND
     1     1     2    1
     2     2     3   ar
     3     3     4   ar
     4     4     5    1
     5     5     6    1
     6     6     7    1
     7     7     8    2
     8     7     9   am
     9     9    10    1
    10    10    11   ar
    11    11    12   ar
    12    12    13   ar
    13    13    14   ar
    14    14    15   ar
    15    15    16    1
    16     4    17   ar
    17    17    18   ar
    18    18    19    1
    19    19    20    1
    20    19    21    1
    21    18    22   ar
    22    22     2   ar
    23    15    10   ar
    24     1    23    1
    25     1    24    1
    26     1    25    1
    27     3    26    1
    28     6    27    1
    29     6    28    1
    30     9    29    1
    31    11    30    1
    32    12    31    1
    33    13    32    1
    34    14    33    1
    35    19    34    1
    36    20    35    1
    37    20    36    1
    38    20    37    1
    39    21    38    1
    40    21    39    1
    41    21    40    1
