@<TRIPOS>MOLECULE
*****
 30 30 0 0 0
SMALL
GASTEIGER

@<TRIPOS>ATOM
      1 C          -4.7566   -0.6994    0.7260 C.3     1  UNL1       -0.0382
      2 C          -3.6186    0.1296    0.1981 C.ar    1  UNL1       -0.0287
      3 C          -2.3012   -0.3585    0.2993 C.ar    1  UNL1       -0.0156
      4 C          -1.2214    0.3874   -0.1809 C.ar    1  UNL1        0.1215
      5 O           0.0944    0.0182   -0.1405 O.3     1  UNL1       -0.4828
      6 C           0.3999   -1.2258    0.4855 C.3     1  UNL1        0.1651
      7 C           1.9058   -1.4917    0.4737 C.2     1  UNL1        0.2507
      8 O           2.4190   -2.3723    1.1603 O.2     1  UNL1       -0.2721
      9 N           2.6234   -0.6936   -0.3914 N.am    1  UNL1       -0.3103
     10 C           4.0736   -0.6961   -0.3951 C.3     1  UNL1        0.0349
     11 C           4.6418    0.2160    0.6932 C.3     1  UNL1        0.0597
     12 O           4.3022    1.5781    0.4256 O.3     1  UNL1       -0.3935
     13 C          -1.4568    1.6313   -0.7680 C.ar    1  UNL1       -0.0185
     14 C          -2.7555    2.1295   -0.8760 C.ar    1  UNL1       -0.0397
     15 C          -3.8319    1.3828   -0.3957 C.ar    1  UNL1        0.0441
     16 CL         -5.4164    2.0506   -0.5578 Cl      1  UNL1       -0.0833
     17 H          -4.4020   -1.6436    1.1530 H       1  UNL1        0.0278
     18 H          -5.4546   -0.9468   -0.0802 H       1  UNL1        0.0278
     19 H          -5.2858   -0.1605    1.5184 H       1  UNL1        0.0278
     20 H          -2.1474   -1.3298    0.7602 H       1  UNL1        0.0657
     21 H           0.0858   -1.2040    1.5354 H       1  UNL1        0.0795
     22 H          -0.0758   -2.0528   -0.0540 H       1  UNL1        0.0795
     23 H           2.1505    0.1539   -0.6937 H       1  UNL1        0.1489
     24 H           4.4329   -1.7204   -0.2533 H       1  UNL1        0.0484
     25 H           4.3809   -0.3445   -1.3851 H       1  UNL1        0.0484
     26 H           5.7328    0.1376    0.7321 H       1  UNL1        0.0573
     27 H           4.2415   -0.0424    1.6783 H       1  UNL1        0.0573
     28 H           4.7826    1.8454   -0.3765 H       1  UNL1        0.2095
     29 H          -0.6235    2.2207   -1.1428 H       1  UNL1        0.0654
     30 H          -2.9197    3.1010   -1.3350 H       1  UNL1        0.0633
@<TRIPOS>BOND
     1     1     2    1
     2     2     3   ar
     3     3     4   ar
     4     4     5    1
     5     5     6    1
     6     6     7    1
     7     7     8    2
     8     7     9   am
     9     9    10    1
    10    10    11    1
    11    11    12    1
    12     4    13   ar
    13    13    14   ar
    14    14    15   ar
    15    15    16    1
    16    15     2   ar
    17     1    17    1
    18     1    18    1
    19     1    19    1
    20     3    20    1
    21     6    21    1
    22     6    22    1
    23     9    23    1
    24    10    24    1
    25    10    25    1
    26    11    26    1
    27    11    27    1
    28    12    28    1
    29    13    29    1
    30    14    30    1
