@<TRIPOS>MOLECULE
*****
 50 51 0 0 0
SMALL
GASTEIGER

@<TRIPOS>ATOM
      1 C          -3.6354    0.3557    3.2608 C.3     1  UNL1       -0.0393
      2 C          -3.2620    0.4027    1.8038 C.ar    1  UNL1       -0.0436
      3 C          -2.0827    1.0793    1.4390 C.ar    1  UNL1       -0.0168
      4 C          -1.6649    1.1696    0.1091 C.ar    1  UNL1        0.1209
      5 O          -0.5004    1.8599   -0.0711 O.3     1  UNL1       -0.4897
      6 C           0.0134    2.0238   -1.3941 C.3     1  UNL1        0.1128
      7 C           0.8667    0.8274   -1.8312 C.3     1  UNL1        0.0818
      8 O           1.9874    0.5656   -0.9815 O.3     1  UNL1       -0.3752
      9 C           2.9998    1.5723   -1.0327 C.3     1  UNL1        0.0605
     10 C           4.2806    1.0726   -0.3377 C.3     1  UNL1        0.0223
     11 N           5.2177    0.3681   -1.2437 N.3     1  UNL1       -0.3001
     12 C           6.4639    0.0233   -0.5381 C.3     1  UNL1       -0.0010
     13 C           6.1979   -1.2972    0.1725 C.3     1  UNL1       -0.0390
     14 C           5.0236   -1.9182   -0.5712 C.3     1  UNL1       -0.0390
     15 C           4.7080   -0.9384   -1.6911 C.3     1  UNL1       -0.0010
     16 C          -2.4377    0.5717   -0.8777 C.ar    1  UNL1       -0.0197
     17 C          -3.6129   -0.1059   -0.5339 C.ar    1  UNL1       -0.0546
     18 C          -4.0464   -0.2048    0.8018 C.ar    1  UNL1       -0.0417
     19 C          -5.3344   -0.9554    1.1212 C.3     1  UNL1       -0.0213
     20 C          -6.5506   -0.2764    0.4835 C.3     1  UNL1       -0.0586
     21 C          -5.2498   -2.4271    0.7036 C.3     1  UNL1       -0.0586
     22 H          -4.6082    0.8314    3.4189 H       1  UNL1        0.0278
     23 H          -2.9080    0.8890    3.8819 H       1  UNL1        0.0278
     24 H          -3.6666   -0.6801    3.6126 H       1  UNL1        0.0278
     25 H          -1.4679    1.5487    2.2054 H       1  UNL1        0.0657
     26 H           0.6333    2.9259   -1.3651 H       1  UNL1        0.0720
     27 H          -0.7816    2.2396   -2.1166 H       1  UNL1        0.0720
     28 H           1.2186    0.9663   -2.8598 H       1  UNL1        0.0594
     29 H           0.2618   -0.0843   -1.8170 H       1  UNL1        0.0594
     30 H           3.2083    1.8658   -2.0682 H       1  UNL1        0.0572
     31 H           2.6373    2.4517   -0.4898 H       1  UNL1        0.0572
     32 H           4.8017    1.9655    0.0304 H       1  UNL1        0.0449
     33 H           4.0185    0.4612    0.5341 H       1  UNL1        0.0449
     34 H           7.2571   -0.1165   -1.2837 H       1  UNL1        0.0427
     35 H           6.8120    0.8048    0.1463 H       1  UNL1        0.0427
     36 H           7.0789   -1.9469    0.1509 H       1  UNL1        0.0278
     37 H           5.9289   -1.1300    1.2219 H       1  UNL1        0.0278
     38 H           5.2701   -2.9103   -0.9620 H       1  UNL1        0.0278
     39 H           4.1679   -2.0256    0.1052 H       1  UNL1        0.0278
     40 H           3.6531   -0.9486   -1.9747 H       1  UNL1        0.0427
     41 H           5.2642   -1.2299   -2.5917 H       1  UNL1        0.0427
     42 H          -2.1628    0.6013   -1.9253 H       1  UNL1        0.0654
     43 H          -4.1933   -0.5635   -1.3324 H       1  UNL1        0.0622
     44 H          -5.5081   -0.9519    2.2022 H       1  UNL1        0.0344
     45 H          -6.5084   -0.2992   -0.6107 H       1  UNL1        0.0235
     46 H          -7.4751   -0.7783    0.7896 H       1  UNL1        0.0235
     47 H          -6.6200    0.7723    0.7939 H       1  UNL1        0.0235
     48 H          -6.1449   -2.9696    1.0279 H       1  UNL1        0.0235
     49 H          -5.1688   -2.5439   -0.3825 H       1  UNL1        0.0235
     50 H          -4.3796   -2.9136    1.1589 H       1  UNL1        0.0235
@<TRIPOS>BOND
     1     1     2    1
     2     2     3   ar
     3     3     4   ar
     4     4     5    1
     5     5     6    1
     6     6     7    1
     7     7     8    1
     8     8     9    1
     9     9    10    1
    10    10    11    1
    11    11    12    1
    12    12    13    1
    13    13    14    1
    14    14    15    1
    15     4    16   ar
    16    16    17   ar
    17    17    18   ar
    18    18    19    1
    19    19    20    1
    20    19    21    1
    21    18     2   ar
    22    15    11    1
    23     1    22    1
    24     1    23    1
    25     1    24    1
    26     3    25    1
    27     6    26    1
    28     6    27    1
    29     7    28    1
    30     7    29    1
    31     9    30    1
    32     9    31    1
    33    10    32    1
    34    10    33    1
    35    12    34    1
    36    12    35    1
    37    13    36    1
    38    13    37    1
    39    14    38    1
    40    14    39    1
    41    15    40    1
    42    15    41    1
    43    16    42    1
    44    17    43    1
    45    19    44    1
    46    20    45    1
    47    20    46    1
    48    20    47    1
    49    21    48    1
    50    21    49    1
    51    21    50    1
