@<TRIPOS>MOLECULE
*****
 43 45 0 0 0
SMALL
GASTEIGER

@<TRIPOS>ATOM
      1 C           4.6391    2.6254    0.9218 C.3     1  UNL1       -0.0390
      2 C           3.5110    1.6363    0.8175 C.ar    1  UNL1       -0.0388
      3 C           2.5554    1.5887    1.8378 C.ar    1  UNL1       -0.0263
      4 C           1.5145    0.6816    1.7365 C.ar    1  UNL1        0.0983
      5 S           0.2626    0.5918    2.9941 S.3     1  UNL1       -0.0979
      6 C          -0.9506    1.7345    2.2679 C.3     1  UNL1        0.0628
      7 C          -1.3416    1.3857    0.8423 C.2     1  UNL1        0.1750
      8 O          -0.9971    2.1391   -0.0741 O.2     1  UNL1       -0.2911
      9 C          -2.1811    0.2018    0.5929 C.ar    1  UNL1        0.0389
     10 C          -2.8294   -0.6340    1.5447 C.ar    1  UNL1       -0.0305
     11 C          -3.5198   -1.6206    0.8711 C.ar    1  UNL1        0.0162
     12 C          -4.3459   -2.7250    1.4295 C.3     1  UNL1       -0.0243
     13 N          -3.3073   -1.4221   -0.4746 N.ar    1  UNL1       -0.3505
     14 C          -3.8380   -2.2431   -1.5450 C.3     1  UNL1        0.0118
     15 C          -2.5015   -0.3150   -0.6603 C.ar    1  UNL1        0.0260
     16 C          -2.0743    0.1781   -2.0047 C.3     1  UNL1       -0.0236
     17 N           1.3789   -0.1763    0.7091 N.ar    1  UNL1       -0.2405
     18 C           2.2825   -0.1347   -0.2801 C.ar    1  UNL1        0.0725
     19 C           2.1240   -1.0106   -1.3454 C.ar    1  UNL1       -0.0357
     20 C           3.0168   -1.0374   -2.4184 C.ar    1  UNL1       -0.0597
     21 C           4.0975   -0.1674   -2.4336 C.ar    1  UNL1       -0.0611
     22 C           4.2790    0.7233   -1.3760 C.ar    1  UNL1       -0.0523
     23 C           3.3800    0.7565   -0.2842 C.ar    1  UNL1        0.0034
     24 H           5.6029    2.1067    0.9071 H       1  UNL1        0.0278
     25 H           4.5937    3.3423    0.0959 H       1  UNL1        0.0278
     26 H           4.5895    3.1956    1.8557 H       1  UNL1        0.0278
     27 H           2.6207    2.2529    2.6939 H       1  UNL1        0.0647
     28 H          -0.5262    2.7447    2.2761 H       1  UNL1        0.0461
     29 H          -1.8475    1.7660    2.8944 H       1  UNL1        0.0461
     30 H          -2.8018   -0.5348    2.6225 H       1  UNL1        0.0642
     31 H          -3.8993   -3.6968    1.1972 H       1  UNL1        0.0292
     32 H          -5.3618   -2.6960    1.0248 H       1  UNL1        0.0292
     33 H          -4.4204   -2.6429    2.5187 H       1  UNL1        0.0292
     34 H          -2.9978   -2.6551   -2.1103 H       1  UNL1        0.0456
     35 H          -4.4662   -1.6133   -2.1808 H       1  UNL1        0.0456
     36 H          -4.4347   -3.0638   -1.1442 H       1  UNL1        0.0456
     37 H          -0.9846    0.2762   -2.0439 H       1  UNL1        0.0292
     38 H          -2.5193    1.1585   -2.2034 H       1  UNL1        0.0292
     39 H          -2.3672   -0.4889   -2.8194 H       1  UNL1        0.0292
     40 H           1.2752   -1.6911   -1.3385 H       1  UNL1        0.0639
     41 H           2.8603   -1.7346   -3.2367 H       1  UNL1        0.0618
     42 H           4.7975   -0.1782   -3.2651 H       1  UNL1        0.0618
     43 H           5.1325    1.3961   -1.4130 H       1  UNL1        0.0624
@<TRIPOS>BOND
     1     1     2    1
     2     2     3   ar
     3     3     4   ar
     4     4     5    1
     5     5     6    1
     6     6     7    1
     7     7     8    2
     8     7     9    1
     9     9    10   ar
    10    10    11   ar
    11    11    12    1
    12    11    13   ar
    13    13    14    1
    14    13    15   ar
    15    15    16    1
    16     4    17   ar
    17    17    18   ar
    18    18    19   ar
    19    19    20   ar
    20    20    21   ar
    21    21    22   ar
    22    22    23   ar
    23    23     2   ar
    24    15     9   ar
    25    23    18   ar
    26     1    24    1
    27     1    25    1
    28     1    26    1
    29     3    27    1
    30     6    28    1
    31     6    29    1
    32    10    30    1
    33    12    31    1
    34    12    32    1
    35    12    33    1
    36    14    34    1
    37    14    35    1
    38    14    36    1
    39    16    37    1
    40    16    38    1
    41    16    39    1
    42    19    40    1
    43    20    41    1
    44    21    42    1
    45    22    43    1
