@<TRIPOS>MOLECULE
*****
 23 24 0 0 0
SMALL
GASTEIGER

@<TRIPOS>ATOM
      1 C          -3.3100    0.4049   -0.3875 C.3     1  UNL1       -0.0275
      2 C          -2.4385   -0.7326    0.1389 C.3     1  UNL1        0.1015
      3 C          -1.3366   -1.1438   -0.8523 C.3     1  UNL1        0.0127
      4 C          -0.1669   -0.5041   -0.2096 C.ar    1  UNL1       -0.0015
      5 C           1.1263   -0.3545   -0.6821 C.ar    1  UNL1       -0.0410
      6 C           2.0762    0.2498    0.1565 C.ar    1  UNL1        0.0593
      7 C           3.4578    0.4097   -0.3592 C.2     1  UNL1        0.3368
      8 O           3.8529    0.0639   -1.4573 O.2     1  UNL1       -0.2451
      9 O           4.2824    0.9972    0.5256 O.3     1  UNL1       -0.4771
     10 C           1.7108    0.6794    1.4497 C.ar    1  UNL1       -0.0443
     11 C           0.4012    0.5107    1.9103 C.ar    1  UNL1       -0.0189
     12 C          -0.5134   -0.0778    1.0611 C.ar    1  UNL1        0.1242
     13 O          -1.8248   -0.3036    1.3832 O.3     1  UNL1       -0.4885
     14 H          -3.8245    0.1141   -1.3083 H       1  UNL1        0.0265
     15 H          -4.0606    0.6844    0.3597 H       1  UNL1        0.0265
     16 H          -2.7154    1.3032   -0.5866 H       1  UNL1        0.0265
     17 H          -3.0827   -1.5921    0.3594 H       1  UNL1        0.0733
     18 H          -1.2079   -2.2314   -0.8586 H       1  UNL1        0.0350
     19 H          -1.5213   -0.7896   -1.8703 H       1  UNL1        0.0350
     20 H           1.4000   -0.7016   -1.6748 H       1  UNL1        0.0630
     21 H           5.1418    1.0351    0.0559 H       1  UNL1        0.2954
     22 H           2.4442    1.1445    2.1044 H       1  UNL1        0.0627
     23 H           0.1090    0.8343    2.9033 H       1  UNL1        0.0654
@<TRIPOS>BOND
     1     1     2    1
     2     2     3    1
     3     3     4    1
     4     4     5   ar
     5     5     6   ar
     6     6     7    1
     7     7     8    2
     8     7     9    1
     9     6    10   ar
    10    10    11   ar
    11    11    12   ar
    12    12    13    1
    13    13     2    1
    14    12     4   ar
    15     1    14    1
    16     1    15    1
    17     1    16    1
    18     2    17    1
    19     3    18    1
    20     3    19    1
    21     5    20    1
    22     9    21    1
    23    10    22    1
    24    11    23    1
