@<TRIPOS>MOLECULE
*****
 38 39 0 0 0
SMALL
GASTEIGER

@<TRIPOS>ATOM
      1 C          -4.1986    2.4228    0.0967 C.3     1  UNL1       -0.0394
      2 C          -3.2939    1.2330   -0.0783 C.ar    1  UNL1       -0.0469
      3 C          -2.1183    1.1468    0.6888 C.ar    1  UNL1       -0.0495
      4 C          -1.2515    0.0601    0.5491 C.ar    1  UNL1       -0.0009
      5 C          -0.0227   -0.0460    1.3362 C.ar    1  UNL1       -0.0443
      6 C           0.8076   -1.0912    1.1781 C.ar    1  UNL1        0.0188
      7 C           2.0886   -1.2609    1.9510 C.3     1  UNL1       -0.0083
      8 C           3.3377   -1.0332    1.0937 C.3     1  UNL1        0.0212
      9 N           3.5095    0.3981    0.8250 N.3     1  UNL1       -0.1945
     10 S           3.6231    0.9720   -0.7357 S.O2    1  UNL1        0.0265
     11 C           5.1648    0.2727   -1.2897 C.3     1  UNL1        0.0705
     12 O           3.8022    2.4020   -0.6141 O.2     1  UNL1       -0.1585
     13 O           2.5480    0.4014   -1.5127 O.2     1  UNL1       -0.1585
     14 C           0.4683   -2.1752    0.2039 C.ar    1  UNL1        0.2524
     15 O           1.1963   -3.1548    0.0612 O.2     1  UNL1       -0.2676
     16 N          -0.6929   -2.0369   -0.5056 N.ar    1  UNL1       -0.3219
     17 C          -1.5607   -0.9477   -0.3663 C.ar    1  UNL1        0.0494
     18 C          -2.7211   -0.8794   -1.1362 C.ar    1  UNL1       -0.0345
     19 C          -3.5983    0.2091   -1.0005 C.ar    1  UNL1       -0.0456
     20 C          -4.8411    0.2616   -1.8469 C.3     1  UNL1       -0.0394
     21 H          -4.2787    2.9805   -0.8417 H       1  UNL1        0.0278
     22 H          -5.1942    2.0999    0.4171 H       1  UNL1        0.0278
     23 H          -3.8159    3.1111    0.8578 H       1  UNL1        0.0278
     24 H          -1.8776    1.9382    1.3953 H       1  UNL1        0.0627
     25 H           0.2063    0.7531    2.0323 H       1  UNL1        0.0628
     26 H           2.1050   -0.5809    2.8128 H       1  UNL1        0.0328
     27 H           2.1192   -2.2748    2.3695 H       1  UNL1        0.0328
     28 H           3.2957   -1.6126    0.1667 H       1  UNL1        0.0444
     29 H           4.2217   -1.3747    1.6441 H       1  UNL1        0.0444
     30 H           3.8932    1.0025    1.5494 H       1  UNL1        0.1476
     31 H           5.9604    0.5902   -0.6132 H       1  UNL1        0.0479
     32 H           5.3611    0.6515   -2.2952 H       1  UNL1        0.0479
     33 H           5.0803   -0.8147   -1.3162 H       1  UNL1        0.0479
     34 H          -0.8963   -2.7689   -1.1705 H       1  UNL1        0.1689
     35 H          -2.9458   -1.6704   -1.8468 H       1  UNL1        0.0641
     36 H          -5.7329    0.2787   -1.2125 H       1  UNL1        0.0278
     37 H          -4.9198   -0.6133   -2.5011 H       1  UNL1        0.0278
     38 H          -4.8288    1.1504   -2.4856 H       1  UNL1        0.0278
@<TRIPOS>BOND
     1     1     2    1
     2     2     3   ar
     3     3     4   ar
     4     4     5   ar
     5     5     6   ar
     6     6     7    1
     7     7     8    1
     8     8     9    1
     9     9    10    1
    10    10    11    1
    11    10    12    2
    12    10    13    2
    13     6    14   ar
    14    14    15    2
    15    14    16   ar
    16    16    17   ar
    17    17    18   ar
    18    18    19   ar
    19    19    20    1
    20    19     2   ar
    21    17     4   ar
    22     1    21    1
    23     1    22    1
    24     1    23    1
    25     3    24    1
    26     5    25    1
    27     7    26    1
    28     7    27    1
    29     8    28    1
    30     8    29    1
    31     9    30    1
    32    11    31    1
    33    11    32    1
    34    11    33    1
    35    16    34    1
    36    18    35    1
    37    20    36    1
    38    20    37    1
    39    20    38    1
