@<TRIPOS>MOLECULE
*****
 42 48 0 0 0
SMALL
GASTEIGER

@<TRIPOS>ATOM
      1 SI         -5.0420    1.4338    2.4447 Si      1  UNL1        0.0000
      2 C          -6.0317    1.0493    0.9022 C.2     1  UNL1        0.0000
      3 C          -5.2258    0.6052   -0.0798 C.ar    1  UNL1        0.0000
      4 C          -5.6596    0.2192   -1.4070 C.ar    1  UNL1        0.0000
      5 C          -4.7379   -0.2046   -2.2919 C.ar    1  UNL1        0.0000
      6 C          -3.3177   -0.2880   -1.9552 C.ar    1  UNL1        0.0000
      7 C          -2.8327    0.0443   -0.7352 C.ar    1  UNL1        0.0000
      8 C          -1.3876   -0.0720   -0.5180 C.ar    1  UNL1        0.0000
      9 C          -0.4748    0.9348   -0.9222 C.ar    1  UNL1        0.0000
     10 C           0.9172    0.7965   -0.6829 C.ar    1  UNL1        0.0000
     11 S           2.2184    1.8887   -1.0841 S.2     1  UNL1        0.0000
     12 C           3.3971    0.8037   -0.3840 C.ar    1  UNL1        0.0000
     13 C           4.7954    0.7022   -0.1614 C.ar    1  UNL1        0.0000
     14 C           5.9343    1.4797   -0.4215 C.ar    1  UNL1        0.0000
     15 C           7.1811    0.9849   -0.0155 C.ar    1  UNL1        0.0000
     16 C           7.2903   -0.2493    0.6312 C.ar    1  UNL1        0.0000
     17 C           6.1601   -1.0316    0.8948 C.ar    1  UNL1        0.0000
     18 C           4.9296   -0.5202    0.4823 C.ar    1  UNL1        0.0000
     19 O           3.7353   -1.1522    0.6611 O.2     1  UNL1        0.0000
     20 C           2.8069   -0.3145    0.1177 C.ar    1  UNL1        0.0000
     21 C           1.4307   -0.3162   -0.0494 C.ar    1  UNL1        0.0000
     22 C           0.5813   -1.3700    0.3906 C.ar    1  UNL1        0.0000
     23 C           0.9368   -2.5221    1.0283 C.ar    1  UNL1        0.0000
     24 S          -0.4828   -3.4482    1.3350 S.2     1  UNL1        0.0000
     25 C          -1.5080   -2.2675    0.5995 C.ar    1  UNL1        0.0000
     26 C          -0.8021   -1.1806    0.1257 C.ar    1  UNL1        0.0000
     27 C          -3.7869    0.5224    0.2700 C.ar    1  UNL1        0.0000
     28 C          -3.4974    0.9096    1.5289 C.2     1  UNL1        0.0000
     29 H          -5.3741    0.5234    3.5671 H       1  UNL1        0.0000
     30 H          -5.0464    2.8806    2.7700 H       1  UNL1        0.0000
     31 H          -7.1002    1.1866    0.8652 H       1  UNL1        0.0000
     32 H          -6.7102    0.2772   -1.6669 H       1  UNL1        0.0000
     33 H          -5.0310   -0.5009   -3.2944 H       1  UNL1        0.0000
     34 H          -2.6598   -0.6428   -2.7449 H       1  UNL1        0.0000
     35 H          -0.8476    1.8291   -1.4182 H       1  UNL1        0.0000
     36 H           5.8561    2.4394   -0.9235 H       1  UNL1        0.0000
     37 H           8.0773    1.5717   -0.2073 H       1  UNL1        0.0000
     38 H           8.2708   -0.6100    0.9359 H       1  UNL1        0.0000
     39 H           6.2311   -1.9900    1.3953 H       1  UNL1        0.0000
     40 H           1.9092   -2.8837    1.3328 H       1  UNL1        0.0000
     41 H          -2.5736   -2.4518    0.5652 H       1  UNL1        0.0000
     42 H          -2.5293    0.9337    2.0032 H       1  UNL1        0.0000
@<TRIPOS>BOND
     1     1     2    1
     2     2     3    2
     3     3     4   ar
     4     4     5   ar
     5     5     6   ar
     6     6     7   ar
     7     7     8    1
     8     8     9   ar
     9     9    10   ar
    10    10    11   ar
    11    11    12   ar
    12    12    13   ar
    13    13    14   ar
    14    14    15   ar
    15    15    16   ar
    16    16    17   ar
    17    17    18   ar
    18    18    19   ar
    19    19    20   ar
    20    20    21   ar
    21    21    22   ar
    22    22    23   ar
    23    23    24   ar
    24    24    25   ar
    25    25    26   ar
    26     7    27   ar
    27    27    28    2
    28    28     1    1
    29    27     3   ar
    30    26     8   ar
    31    21    10   ar
    32    26    22   ar
    33    20    12   ar
    34    18    13   ar
    35     1    29    1
    36     1    30    1
    37     2    31    1
    38     4    32    1
    39     5    33    1
    40     6    34    1
    41     9    35    1
    42    14    36    1
    43    15    37    1
    44    16    38    1
    45    17    39    1
    46    23    40    1
    47    25    41    1
    48    28    42    1
