@<TRIPOS>MOLECULE
*****
 41 42 0 0 0
SMALL
GASTEIGER

@<TRIPOS>ATOM
      1 C          -6.1484    0.6437   -2.0000 C.3     1  UNL1       -0.0242
      2 C          -4.8537    0.2773   -1.3671 C.ar    1  UNL1        0.0164
      3 C          -3.7278   -0.2724   -1.9486 C.ar    1  UNL1       -0.0335
      4 C          -2.7406   -0.4390   -0.9430 C.ar    1  UNL1        0.0004
      5 C          -1.4225   -0.9379   -0.9458 C.ar    1  UNL1       -0.0479
      6 C          -0.6826   -0.9732    0.2489 C.ar    1  UNL1       -0.0296
      7 C           0.7375   -1.4710    0.2450 C.3     1  UNL1        0.0368
      8 N           1.6605   -0.3726    0.0868 N.am    1  UNL1       -0.3112
      9 C           3.0186   -0.5735    0.1825 C.2     1  UNL1        0.2135
     10 O           3.5172   -1.6567    0.4644 O.2     1  UNL1       -0.2758
     11 C           3.8209    0.6804   -0.1222 C.3     1  UNL1        0.0263
     12 C           5.3201    0.5410    0.1824 C.3     1  UNL1       -0.0385
     13 C           6.0981    1.6818   -0.4767 C.3     1  UNL1       -0.0622
     14 C           5.5852    0.5401    1.6901 C.3     1  UNL1       -0.0622
     15 C          -1.2587   -0.4939    1.4304 C.ar    1  UNL1       -0.0551
     16 C          -2.5658    0.0044    1.4557 C.ar    1  UNL1       -0.0373
     17 C          -3.2903    0.0202    0.2535 C.ar    1  UNL1        0.0490
     18 N          -4.5780    0.4432   -0.0270 N.ar    1  UNL1       -0.3471
     19 C          -5.4765    0.9830    0.9721 C.3     1  UNL1        0.0121
     20 H          -6.1210    0.4598   -3.0791 H       1  UNL1        0.0292
     21 H          -6.9660    0.0492   -1.5804 H       1  UNL1        0.0292
     22 H          -6.3681    1.7053   -1.8483 H       1  UNL1        0.0292
     23 H          -3.6241   -0.5283   -2.9951 H       1  UNL1        0.0641
     24 H          -0.9871   -1.2935   -1.8758 H       1  UNL1        0.0627
     25 H           0.9659   -2.0040    1.1757 H       1  UNL1        0.0512
     26 H           0.9016   -2.1797   -0.5754 H       1  UNL1        0.0512
     27 H           1.3113    0.4870   -0.3164 H       1  UNL1        0.1490
     28 H           3.6799    0.8885   -1.1904 H       1  UNL1        0.0361
     29 H           3.3955    1.5208    0.4399 H       1  UNL1        0.0361
     30 H           5.6921   -0.4041   -0.2327 H       1  UNL1        0.0300
     31 H           5.7681    2.6569   -0.1022 H       1  UNL1        0.0232
     32 H           7.1709    1.5874   -0.2777 H       1  UNL1        0.0232
     33 H           5.9591    1.6709   -1.5629 H       1  UNL1        0.0232
     34 H           6.6565    0.4375    1.8940 H       1  UNL1        0.0232
     35 H           5.0746   -0.2913    2.1855 H       1  UNL1        0.0232
     36 H           5.2422    1.4713    2.1542 H       1  UNL1        0.0232
     37 H          -0.6838   -0.5044    2.3553 H       1  UNL1        0.0621
     38 H          -2.9962    0.3673    2.3834 H       1  UNL1        0.0638
     39 H          -5.5439    0.2711    1.7992 H       1  UNL1        0.0456
     40 H          -6.4711    1.1373    0.5509 H       1  UNL1        0.0456
     41 H          -5.0692    1.9371    1.3167 H       1  UNL1        0.0456
@<TRIPOS>BOND
     1     1     2    1
     2     2     3   ar
     3     3     4   ar
     4     4     5   ar
     5     5     6   ar
     6     6     7    1
     7     7     8    1
     8     8     9   am
     9     9    10    2
    10     9    11    1
    11    11    12    1
    12    12    13    1
    13    12    14    1
    14     6    15   ar
    15    15    16   ar
    16    16    17   ar
    17    17    18   ar
    18    18    19    1
    19    18     2   ar
    20    17     4   ar
    21     1    20    1
    22     1    21    1
    23     1    22    1
    24     3    23    1
    25     5    24    1
    26     7    25    1
    27     7    26    1
    28     8    27    1
    29    11    28    1
    30    11    29    1
    31    12    30    1
    32    13    31    1
    33    13    32    1
    34    13    33    1
    35    14    34    1
    36    14    35    1
    37    14    36    1
    38    15    37    1
    39    16    38    1
    40    19    39    1
    41    19    40    1
    42    19    41    1
