@<TRIPOS>MOLECULE
*****
 29 30 0 0 0
SMALL
GASTEIGER

@<TRIPOS>ATOM
      1 C          -1.3416   -2.0785    1.2541 C.3     1  UNL1       -0.0223
      2 C          -1.7104   -1.1041    0.1733 C.ar    1  UNL1        0.0396
      3 C          -3.0042   -0.6086    0.0982 C.ar    1  UNL1       -0.0394
      4 C          -3.3116    0.3009   -0.9085 C.ar    1  UNL1       -0.0401
      5 C          -2.3232    0.6972   -1.8157 C.ar    1  UNL1        0.0836
      6 C          -2.6663    1.6302   -2.8455 C.1     1  UNL1        0.1018
      7 N          -2.9933    2.3840   -3.6654 N.1     1  UNL1       -0.1908
      8 C          -1.0430    0.1594   -1.6775 C.ar    1  UNL1        0.1150
      9 S           0.2863    0.6153   -2.7907 S.3     1  UNL1       -0.0953
     10 C           1.6910   -0.3567   -2.1562 C.3     1  UNL1        0.0766
     11 C           2.3549    0.3446   -0.9787 C.2     1  UNL1        0.2289
     12 O           3.3383    1.0597   -1.1495 O.2     1  UNL1       -0.2745
     13 N           1.7392    0.0611    0.2170 N.am    1  UNL1       -0.2640
     14 C           2.0729    0.5070    1.4658 C.ar    1  UNL1        0.1643
     15 N           1.3182    0.2316    2.5061 N.ar    1  UNL1       -0.2330
     16 C           1.8766    0.7910    3.6391 C.ar    1  UNL1        0.0368
     17 C           3.0553    1.4764    3.4424 C.ar    1  UNL1       -0.0030
     18 S           3.4778    1.4161    1.7835 S.2     1  UNL1       -0.0605
     19 N          -0.7337   -0.7310   -0.6944 N.ar    1  UNL1       -0.2444
     20 H          -0.2945   -2.3844    1.1628 H       1  UNL1        0.0292
     21 H          -1.9649   -2.9753    1.1832 H       1  UNL1        0.0292
     22 H          -1.4799   -1.6202    2.2381 H       1  UNL1        0.0292
     23 H          -3.7640   -0.9191    0.8100 H       1  UNL1        0.0636
     24 H          -4.3222    0.6992   -0.9811 H       1  UNL1        0.0632
     25 H           1.4059   -1.3818   -1.8993 H       1  UNL1        0.0475
     26 H           2.4348   -0.4347   -2.9570 H       1  UNL1        0.0475
     27 H           0.8539   -0.4374    0.1855 H       1  UNL1        0.1567
     28 H           1.3792    0.6673    4.5932 H       1  UNL1        0.0835
     29 H           3.6686    1.9910    4.1672 H       1  UNL1        0.0709
@<TRIPOS>BOND
     1     1     2    1
     2     2     3   ar
     3     3     4   ar
     4     4     5   ar
     5     5     6    1
     6     6     7    3
     7     5     8   ar
     8     8     9    1
     9     9    10    1
    10    10    11    1
    11    11    12    2
    12    11    13   am
    13    13    14    1
    14    14    15   ar
    15    15    16   ar
    16    16    17   ar
    17    17    18   ar
    18     8    19   ar
    19    19     2   ar
    20    18    14   ar
    21     1    20    1
    22     1    21    1
    23     1    22    1
    24     3    23    1
    25     4    24    1
    26    10    25    1
    27    10    26    1
    28    13    27    1
    29    16    28    1
    30    17    29    1
