@<TRIPOS>MOLECULE
*****
 39 40 0 0 0
SMALL
GASTEIGER

@<TRIPOS>ATOM
      1 C          -5.8344   -0.6344    0.8605 C.3     1  UNL1       -0.0395
      2 C          -4.3963   -0.3866    0.4942 C.ar    1  UNL1       -0.0475
      3 C          -3.6052   -1.4561    0.0503 C.ar    1  UNL1       -0.0579
      4 C          -2.2635   -1.2668   -0.2960 C.ar    1  UNL1       -0.0509
      5 C          -1.6870    0.0020   -0.2052 C.ar    1  UNL1        0.0214
      6 C          -0.2591    0.2801   -0.5638 C.2     1  UNL1        0.2031
      7 O           0.1965    1.4074   -0.3587 O.2     1  UNL1       -0.2881
      8 C           0.5968   -0.8286   -1.1965 C.3     1  UNL1        0.1627
      9 C           0.2872   -0.9254   -2.6855 C.3     1  UNL1       -0.0203
     10 O           1.9948   -0.5206   -1.0883 O.3     1  UNL1       -0.4479
     11 C           2.5019   -0.6481    0.1658 C.2     1  UNL1        0.3780
     12 O           1.8948   -1.0869    1.1330 O.2     1  UNL1       -0.2414
     13 C           3.9210   -0.1898    0.1861 C.2     1  UNL1        0.2396
     14 C           4.5544   -0.1699    1.3710 C.2     1  UNL1        0.1334
     15 O           5.8696    0.1870    1.5623 O.2     1  UNL1       -0.4922
     16 C           6.5745    0.3040    0.3172 C.3     1  UNL1        0.1228
     17 C           5.7107    0.9792   -0.7399 C.3     1  UNL1        0.1239
     18 O           4.5289    0.2090   -0.9983 O.2     1  UNL1       -0.4799
     19 C          -2.4744    1.0732    0.2437 C.ar    1  UNL1       -0.0480
     20 C          -3.8237    0.8949    0.5947 C.ar    1  UNL1       -0.0469
     21 C          -4.6218    2.0780    1.0712 C.3     1  UNL1       -0.0394
     22 H          -6.0028   -0.4016    1.9166 H       1  UNL1        0.0278
     23 H          -6.1143   -1.6817    0.7043 H       1  UNL1        0.0278
     24 H          -6.4964   -0.0219    0.2404 H       1  UNL1        0.0278
     25 H          -4.0310   -2.4553   -0.0262 H       1  UNL1        0.0620
     26 H          -1.7036   -2.1354   -0.6254 H       1  UNL1        0.0625
     27 H           0.4157   -1.7948   -0.7154 H       1  UNL1        0.0816
     28 H           0.9240   -1.6797   -3.1603 H       1  UNL1        0.0270
     29 H           0.4940    0.0259   -3.1893 H       1  UNL1        0.0270
     30 H          -0.7587   -1.1857   -2.8715 H       1  UNL1        0.0270
     31 H           4.0893   -0.4290    2.3151 H       1  UNL1        0.1064
     32 H           6.8691   -0.7032   -0.0019 H       1  UNL1        0.0731
     33 H           7.4833    0.8857    0.4996 H       1  UNL1        0.0731
     34 H           6.2620    1.0716   -1.6808 H       1  UNL1        0.0731
     35 H           5.4066    1.9842   -0.4217 H       1  UNL1        0.0731
     36 H          -2.0286    2.0648    0.3230 H       1  UNL1        0.0627
     37 H          -4.9914    1.9033    2.0865 H       1  UNL1        0.0278
     38 H          -4.0158    2.9900    1.0941 H       1  UNL1        0.0278
     39 H          -5.4670    2.2611    0.4003 H       1  UNL1        0.0278
@<TRIPOS>BOND
     1     1     2    1
     2     2     3   ar
     3     3     4   ar
     4     4     5   ar
     5     5     6    1
     6     6     7    2
     7     6     8    1
     8     8     9    1
     9     8    10    1
    10    10    11    1
    11    11    12    2
    12    11    13    1
    13    13    14    2
    14    14    15    1
    15    15    16    1
    16    16    17    1
    17    17    18    1
    18     5    19   ar
    19    19    20   ar
    20    20    21    1
    21    20     2   ar
    22    18    13    1
    23     1    22    1
    24     1    23    1
    25     1    24    1
    26     3    25    1
    27     4    26    1
    28     8    27    1
    29     9    28    1
    30     9    29    1
    31     9    30    1
    32    14    31    1
    33    16    32    1
    34    16    33    1
    35    17    34    1
    36    17    35    1
    37    19    36    1
    38    21    37    1
    39    21    38    1
    40    21    39    1
