@<TRIPOS>MOLECULE
*****
 45 47 0 0 0
SMALL
GASTEIGER

@<TRIPOS>ATOM
      1 C          -8.5486    1.0146   -1.0599 C.3     1  UNL1       -0.0397
      2 C          -7.3142    0.5211   -0.3639 C.ar    1  UNL1       -0.0504
      3 C          -7.3671   -0.6189    0.4461 C.ar    1  UNL1       -0.0582
      4 C          -6.2264   -1.0596    1.1214 C.ar    1  UNL1       -0.0507
      5 C          -5.0169   -0.3659    0.9951 C.ar    1  UNL1        0.0217
      6 C          -3.8358   -0.8777    1.7409 C.2     1  UNL1        0.1861
      7 O          -3.9915   -1.5190    2.7751 O.2     1  UNL1       -0.2873
      8 C          -2.4842   -0.6202    1.1710 C.2     1  UNL1       -0.0138
      9 C          -1.3941   -0.9259    1.8913 C.2     1  UNL1       -0.0510
     10 C          -0.0185   -0.7435    1.4120 C.ar    1  UNL1       -0.0247
     11 C           0.9473   -1.6953    1.7532 C.ar    1  UNL1       -0.0511
     12 C           2.2725   -1.5419    1.3353 C.ar    1  UNL1       -0.0194
     13 C           2.6592   -0.4321    0.5822 C.ar    1  UNL1        0.1210
     14 O           3.9825   -0.4078    0.2421 O.3     1  UNL1       -0.4874
     15 C           4.4374    0.7042   -0.5238 C.3     1  UNL1        0.1146
     16 C           5.9120    0.5231   -0.7861 C.ar    1  UNL1       -0.0104
     17 C           6.3522   -0.1963   -1.9063 C.ar    1  UNL1       -0.0554
     18 C           7.7165   -0.3748   -2.1415 C.ar    1  UNL1       -0.0614
     19 C           8.6528    0.1554   -1.2558 C.ar    1  UNL1       -0.0617
     20 C           8.2265    0.8588   -0.1307 C.ar    1  UNL1       -0.0614
     21 C           6.8626    1.0384    0.1065 C.ar    1  UNL1       -0.0554
     22 C           1.7054    0.5299    0.2529 C.ar    1  UNL1       -0.0194
     23 C           0.3762    0.3765    0.6699 C.ar    1  UNL1       -0.0511
     24 C          -4.9681    0.7931    0.2117 C.ar    1  UNL1       -0.0507
     25 C          -6.1121    1.2322   -0.4625 C.ar    1  UNL1       -0.0582
     26 H          -9.0951    1.7036   -0.4087 H       1  UNL1        0.0278
     27 H          -8.2914    1.5340   -1.9891 H       1  UNL1        0.0278
     28 H          -9.2066    0.1807   -1.3259 H       1  UNL1        0.0278
     29 H          -8.2977   -1.1711    0.5605 H       1  UNL1        0.0620
     30 H          -6.2848   -1.9474    1.7488 H       1  UNL1        0.0625
     31 H          -2.4132   -0.2266    0.1658 H       1  UNL1        0.0656
     32 H          -1.4973   -1.3623    2.8841 H       1  UNL1        0.0625
     33 H           0.6787   -2.5708    2.3406 H       1  UNL1        0.0625
     34 H           3.0105   -2.2949    1.6023 H       1  UNL1        0.0654
     35 H           4.2787    1.6420    0.0236 H       1  UNL1        0.0748
     36 H           3.9043    0.7595   -1.4815 H       1  UNL1        0.0748
     37 H           5.6321   -0.6280   -2.5979 H       1  UNL1        0.0621
     38 H           8.0484   -0.9336   -3.0126 H       1  UNL1        0.0618
     39 H           9.7146    0.0125   -1.4374 H       1  UNL1        0.0618
     40 H           8.9562    1.2621    0.5665 H       1  UNL1        0.0618
     41 H           6.5440    1.5771    0.9962 H       1  UNL1        0.0621
     42 H           1.9574    1.4156   -0.3202 H       1  UNL1        0.0654
     43 H          -0.3408    1.1537    0.4172 H       1  UNL1        0.0625
     44 H          -4.0615    1.3855    0.1325 H       1  UNL1        0.0625
     45 H          -6.0619    2.1401   -1.0605 H       1  UNL1        0.0620
@<TRIPOS>BOND
     1     1     2    1
     2     2     3   ar
     3     3     4   ar
     4     4     5   ar
     5     5     6    1
     6     6     7    2
     7     6     8    1
     8     8     9    2
     9     9    10    1
    10    10    11   ar
    11    11    12   ar
    12    12    13   ar
    13    13    14    1
    14    14    15    1
    15    15    16    1
    16    16    17   ar
    17    17    18   ar
    18    18    19   ar
    19    19    20   ar
    20    20    21   ar
    21    13    22   ar
    22    22    23   ar
    23     5    24   ar
    24    24    25   ar
    25    25     2   ar
    26    23    10   ar
    27    21    16   ar
    28     1    26    1
    29     1    27    1
    30     1    28    1
    31     3    29    1
    32     4    30    1
    33     8    31    1
    34     9    32    1
    35    11    33    1
    36    12    34    1
    37    15    35    1
    38    15    36    1
    39    17    37    1
    40    18    38    1
    41    19    39    1
    42    20    40    1
    43    21    41    1
    44    22    42    1
    45    23    43    1
    46    24    44    1
    47    25    45    1
