@<TRIPOS>MOLECULE
*****
 31 32 0 0 0
SMALL
GASTEIGER

@<TRIPOS>ATOM
      1 C          -4.6804    0.9302   -0.3183 C.3     1  UNL1       -0.0396
      2 C          -3.3150    0.3202   -0.2019 C.ar    1  UNL1       -0.0470
      3 C          -2.2154    0.9088   -0.8371 C.ar    1  UNL1       -0.0579
      4 C          -0.9356    0.3593   -0.7015 C.ar    1  UNL1       -0.0471
      5 C          -0.7353   -0.7809    0.0896 C.ar    1  UNL1        0.0636
      6 C           0.6144   -1.3919    0.2500 C.2     1  UNL1        0.1974
      7 O           0.7298   -2.5150    0.7387 O.2     1  UNL1       -0.2865
      8 C           1.8347   -0.7151   -0.2267 C.ar    1  UNL1        0.0363
      9 C           2.4722   -1.2936   -1.3351 C.ar    1  UNL1       -0.0501
     10 C           3.6163   -0.7040   -1.8706 C.ar    1  UNL1       -0.0610
     11 C           4.1321    0.4565   -1.2979 C.ar    1  UNL1       -0.0609
     12 C           3.5119    1.0234   -0.1808 C.ar    1  UNL1       -0.0471
     13 C           2.3593    0.4394    0.3716 C.ar    1  UNL1        0.0696
     14 C           1.7448    1.0227    1.5892 C.2     1  UNL1        0.3375
     15 O           0.9677    0.4792    2.3474 O.2     1  UNL1       -0.2451
     16 O           2.1217    2.2989    1.7894 O.3     1  UNL1       -0.4771
     17 C          -1.8407   -1.3673    0.7229 C.ar    1  UNL1        0.1279
     18 O          -1.7503   -2.4947    1.4971 O.3     1  UNL1       -0.5060
     19 C          -3.1152   -0.8176    0.5878 C.ar    1  UNL1       -0.0166
     20 H          -5.4583    0.1622   -0.2532 H       1  UNL1        0.0278
     21 H          -4.8022    1.4341   -1.2829 H       1  UNL1        0.0278
     22 H          -4.8340    1.6590    0.4834 H       1  UNL1        0.0278
     23 H          -2.3500    1.8003   -1.4467 H       1  UNL1        0.0620
     24 H          -0.1170    0.8387   -1.2299 H       1  UNL1        0.0626
     25 H           2.0769   -2.2055   -1.7795 H       1  UNL1        0.0625
     26 H           4.1086   -1.1534   -2.7303 H       1  UNL1        0.0618
     27 H           5.0281    0.9147   -1.7116 H       1  UNL1        0.0618
     28 H           3.9481    1.9168    0.2625 H       1  UNL1        0.0626
     29 H           1.6459    2.5561    2.6085 H       1  UNL1        0.2954
     30 H          -0.8129   -2.7937    1.4770 H       1  UNL1        0.2922
     31 H          -3.9502   -1.2876    1.1024 H       1  UNL1        0.0657
@<TRIPOS>BOND
     1     1     2    1
     2     2     3   ar
     3     3     4   ar
     4     4     5   ar
     5     5     6    1
     6     6     7    2
     7     6     8    1
     8     8     9   ar
     9     9    10   ar
    10    10    11   ar
    11    11    12   ar
    12    12    13   ar
    13    13    14    1
    14    14    15    2
    15    14    16    1
    16     5    17   ar
    17    17    18    1
    18    17    19   ar
    19    19     2   ar
    20    13     8   ar
    21     1    20    1
    22     1    21    1
    23     1    22    1
    24     3    23    1
    25     4    24    1
    26     9    25    1
    27    10    26    1
    28    11    27    1
    29    12    28    1
    30    16    29    1
    31    18    30    1
    32    19    31    1
