@<TRIPOS>MOLECULE
*****
 38 39 0 0 0
SMALL
GASTEIGER

@<TRIPOS>ATOM
      1 C          -4.9572   -0.0681   -1.4629 C.3     1  UNL1       -0.0395
      2 C          -3.6543   -0.2419   -0.7299 C.ar    1  UNL1       -0.0475
      3 C          -2.5670   -0.8327   -1.3957 C.ar    1  UNL1       -0.0579
      4 C          -1.3467   -1.0167   -0.7453 C.ar    1  UNL1       -0.0494
      5 C          -1.1987   -0.5959    0.5775 C.ar    1  UNL1        0.0372
      6 C           0.0788   -0.8054    1.2982 C.2     1  UNL1        0.2466
      7 O           0.0323   -1.3608    2.3938 O.2     1  UNL1       -0.2700
      8 N           1.2725   -0.3928    0.6898 N.am    1  UNL1       -0.2975
      9 C           2.5028   -0.6923    1.4177 C.3     1  UNL1        0.0152
     10 C           3.7163   -0.7359    0.4931 C.3     1  UNL1       -0.0345
     11 C           3.8272    0.5424   -0.3463 C.3     1  UNL1       -0.0410
     12 C           5.0064    0.4591   -1.3123 C.3     1  UNL1       -0.0623
     13 C           2.5150    0.7787   -1.1042 C.3     1  UNL1       -0.0345
     14 C           1.3239    0.8061   -0.1511 C.3     1  UNL1        0.0152
     15 C          -2.2796   -0.0335    1.2625 C.ar    1  UNL1       -0.0465
     16 C          -3.5122    0.1552    0.6170 C.ar    1  UNL1       -0.0468
     17 C          -4.6545    0.7682    1.3801 C.3     1  UNL1       -0.0394
     18 H          -5.2585    0.9842   -1.4615 H       1  UNL1        0.0278
     19 H          -4.8750   -0.3827   -2.5088 H       1  UNL1        0.0278
     20 H          -5.7393   -0.6737   -0.9943 H       1  UNL1        0.0278
     21 H          -2.6682   -1.1630   -2.4276 H       1  UNL1        0.0620
     22 H          -0.5204   -1.4931   -1.2662 H       1  UNL1        0.0625
     23 H           2.4069   -1.6561    1.9305 H       1  UNL1        0.0465
     24 H           2.6304    0.0777    2.1885 H       1  UNL1        0.0465
     25 H           4.6250   -0.8780    1.0896 H       1  UNL1        0.0283
     26 H           3.6289   -1.6054   -0.1715 H       1  UNL1        0.0283
     27 H           3.9997    1.3910    0.3289 H       1  UNL1        0.0299
     28 H           5.9447    0.3125   -0.7670 H       1  UNL1        0.0232
     29 H           4.8894   -0.3733   -2.0146 H       1  UNL1        0.0232
     30 H           5.0971    1.3824   -1.8940 H       1  UNL1        0.0232
     31 H           2.3657   -0.0190   -1.8434 H       1  UNL1        0.0283
     32 H           2.5629    1.7246   -1.6561 H       1  UNL1        0.0283
     33 H           0.4046    0.9386   -0.7247 H       1  UNL1        0.0465
     34 H           1.3951    1.6689    0.5234 H       1  UNL1        0.0465
     35 H          -2.1537    0.2513    2.3056 H       1  UNL1        0.0628
     36 H          -4.3709    0.9984    2.4126 H       1  UNL1        0.0278
     37 H          -4.9677    1.7046    0.9079 H       1  UNL1        0.0278
     38 H          -5.5016    0.0761    1.4183 H       1  UNL1        0.0278
@<TRIPOS>BOND
     1     1     2    1
     2     2     3   ar
     3     3     4   ar
     4     4     5   ar
     5     5     6    1
     6     6     7    2
     7     6     8   am
     8     8     9    1
     9     9    10    1
    10    10    11    1
    11    11    12    1
    12    11    13    1
    13    13    14    1
    14     5    15   ar
    15    15    16   ar
    16    16    17    1
    17    16     2   ar
    18    14     8    1
    19     1    18    1
    20     1    19    1
    21     1    20    1
    22     3    21    1
    23     4    22    1
    24     9    23    1
    25     9    24    1
    26    10    25    1
    27    10    26    1
    28    11    27    1
    29    12    28    1
    30    12    29    1
    31    12    30    1
    32    13    31    1
    33    13    32    1
    34    14    33    1
    35    14    34    1
    36    15    35    1
    37    17    36    1
    38    17    37    1
    39    17    38    1
