@<TRIPOS>MOLECULE
*****
 34 35 0 0 0
SMALL
GASTEIGER

@<TRIPOS>ATOM
      1 C           5.5870    0.7920    0.4186 C.3     1  UNL1       -0.0397
      2 C           4.1595    0.6607   -0.0262 C.ar    1  UNL1       -0.0504
      3 C           3.5819   -0.6064   -0.1861 C.ar    1  UNL1       -0.0581
      4 C           2.2657   -0.7323   -0.6353 C.ar    1  UNL1       -0.0494
      5 C           1.5187    0.4136   -0.9228 C.ar    1  UNL1        0.0370
      6 C           0.1268    0.3126   -1.4137 C.2     1  UNL1        0.2477
      7 O          -0.1683    0.8670   -2.4685 O.2     1  UNL1       -0.2699
      8 N          -0.7903   -0.3721   -0.6504 N.am    1  UNL1       -0.2818
      9 C          -0.6328   -0.9238    0.6840 C.3     1  UNL1        0.0307
     10 C          -2.0617   -1.0214    1.2065 C.3     1  UNL1        0.0377
     11 N          -2.8552   -1.1946   -0.0231 N.3     1  UNL1       -0.1624
     12 S          -4.5136   -1.0802    0.0170 S.O2    1  UNL1        0.0304
     13 C          -4.8202    0.6480    0.3388 C.3     1  UNL1        0.0708
     14 O          -5.0053   -1.3756   -1.3109 O.2     1  UNL1       -0.1582
     15 O          -4.9707   -1.8255    1.1706 O.2     1  UNL1       -0.1582
     16 C          -2.1320   -0.5769   -1.1379 C.3     1  UNL1        0.0879
     17 C           2.0980    1.6794   -0.8053 C.ar    1  UNL1       -0.0494
     18 C           3.4141    1.8010   -0.3555 C.ar    1  UNL1       -0.0581
     19 H           5.8633   -0.0275    1.0903 H       1  UNL1        0.0278
     20 H           6.2523    0.7778   -0.4501 H       1  UNL1        0.0278
     21 H           5.7402    1.7272    0.9674 H       1  UNL1        0.0278
     22 H           4.1604   -1.5031    0.0270 H       1  UNL1        0.0620
     23 H           1.8399   -1.7212   -0.7812 H       1  UNL1        0.0625
     24 H          -0.1916   -1.9212    0.5832 H       1  UNL1        0.0478
     25 H           0.0085   -0.3017    1.3139 H       1  UNL1        0.0478
     26 H          -2.3367   -0.0902    1.7114 H       1  UNL1        0.0460
     27 H          -2.1807   -1.8622    1.8943 H       1  UNL1        0.0460
     28 H          -4.3779    0.9240    1.2966 H       1  UNL1        0.0479
     29 H          -5.9032    0.7860    0.3870 H       1  UNL1        0.0479
     30 H          -4.4154    1.2511   -0.4741 H       1  UNL1        0.0479
     31 H          -2.0977   -1.2505   -1.9996 H       1  UNL1        0.0650
     32 H          -2.5506    0.3872   -1.4379 H       1  UNL1        0.0650
     33 H           1.5296    2.5679   -1.0705 H       1  UNL1        0.0625
     34 H           3.8581    2.7909   -0.2722 H       1  UNL1        0.0620
@<TRIPOS>BOND
     1     1     2    1
     2     2     3   ar
     3     3     4   ar
     4     4     5   ar
     5     5     6    1
     6     6     7    2
     7     6     8   am
     8     8     9    1
     9     9    10    1
    10    10    11    1
    11    11    12    1
    12    12    13    1
    13    12    14    2
    14    12    15    2
    15    11    16    1
    16     5    17   ar
    17    17    18   ar
    18    18     2   ar
    19    16     8    1
    20     1    19    1
    21     1    20    1
    22     1    21    1
    23     3    22    1
    24     4    23    1
    25     9    24    1
    26     9    25    1
    27    10    26    1
    28    10    27    1
    29    13    28    1
    30    13    29    1
    31    13    30    1
    32    16    31    1
    33    16    32    1
    34    17    33    1
    35    18    34    1
