@<TRIPOS>MOLECULE
*****
 36 38 0 0 0
SMALL
GASTEIGER

@<TRIPOS>ATOM
      1 C          -6.5332   -1.9092    1.2243 C.3     1  UNL1       -0.0063
      2 C          -5.5772   -1.2999    0.2792 C.ar    1  UNL1        0.1029
      3 C          -5.6322   -0.9810   -1.0573 C.ar    1  UNL1       -0.0202
      4 C          -4.3742   -0.4123   -1.3810 C.ar    1  UNL1       -0.0110
      5 C          -3.6140   -0.4145   -0.2209 C.ar    1  UNL1        0.1898
      6 C          -2.2590    0.0263    0.1043 C.2     1  UNL1        0.2846
      7 O          -1.8119   -0.0585    1.2439 O.2     1  UNL1       -0.2664
      8 N          -1.5696    0.5253   -0.9891 N.am    1  UNL1       -0.2624
      9 C          -0.2811    1.0145   -0.9681 C.ar    1  UNL1        0.1471
     10 C           0.3923    1.4946   -2.1201 C.ar    1  UNL1       -0.0021
     11 C           1.6381    1.8810   -1.6848 C.ar    1  UNL1        0.0277
     12 N           1.6574    1.6144   -0.3461 N.ar    1  UNL1       -0.2653
     13 C           2.7558    1.8527    0.5802 C.3     1  UNL1        0.0666
     14 C           3.7821    0.7464    0.5212 C.ar    1  UNL1       -0.0260
     15 C           5.0603    0.9813   -0.0111 C.ar    1  UNL1       -0.0541
     16 C           6.0020   -0.0481   -0.0618 C.ar    1  UNL1       -0.0261
     17 C           5.6689   -1.3096    0.4177 C.ar    1  UNL1        0.1234
     18 F           6.5754   -2.2944    0.3657 F       1  UNL1       -0.2055
     19 C           4.4108   -1.5635    0.9486 C.ar    1  UNL1       -0.0261
     20 C           3.4674   -0.5369    1.0016 C.ar    1  UNL1       -0.0541
     21 N           0.4966    1.1121    0.1076 N.ar    1  UNL1       -0.1556
     22 O          -4.3645   -0.9610    0.7901 O.2     1  UNL1       -0.4554
     23 H          -6.1230   -2.8342    1.6409 H       1  UNL1        0.0308
     24 H          -6.7464   -1.2225    2.0493 H       1  UNL1        0.0308
     25 H          -7.4782   -2.1487    0.7272 H       1  UNL1        0.0308
     26 H          -6.4750   -1.1380   -1.7163 H       1  UNL1        0.0652
     27 H          -4.0768   -0.0469   -2.3526 H       1  UNL1        0.0657
     28 H          -2.0169    0.5289   -1.8889 H       1  UNL1        0.1567
     29 H           0.0238    1.5488   -3.1339 H       1  UNL1        0.0668
     30 H           2.4920    2.2978   -2.1996 H       1  UNL1        0.0827
     31 H           3.1939    2.8226    0.3178 H       1  UNL1        0.0558
     32 H           2.3438    1.9412    1.5923 H       1  UNL1        0.0558
     33 H           5.3327    1.9644   -0.3890 H       1  UNL1        0.0622
     34 H           6.9923    0.1240   -0.4712 H       1  UNL1        0.0646
     35 H           4.1693   -2.5558    1.3156 H       1  UNL1        0.0646
     36 H           2.4781   -0.7412    1.4127 H       1  UNL1        0.0622
@<TRIPOS>BOND
     1     1     2    1
     2     2     3   ar
     3     3     4   ar
     4     4     5   ar
     5     5     6    1
     6     6     7    2
     7     6     8   am
     8     8     9    1
     9     9    10   ar
    10    10    11   ar
    11    11    12   ar
    12    12    13    1
    13    13    14    1
    14    14    15   ar
    15    15    16   ar
    16    16    17   ar
    17    17    18    1
    18    17    19   ar
    19    19    20   ar
    20    12    21   ar
    21     5    22   ar
    22    22     2   ar
    23    21     9   ar
    24    20    14   ar
    25     1    23    1
    26     1    24    1
    27     1    25    1
    28     3    26    1
    29     4    27    1
    30     8    28    1
    31    10    29    1
    32    11    30    1
    33    13    31    1
    34    13    32    1
    35    15    33    1
    36    16    34    1
    37    19    35    1
    38    20    36    1
