@<TRIPOS>MOLECULE
*****
 35 37 0 0 0
SMALL
GASTEIGER

@<TRIPOS>ATOM
      1 C           7.1570   -0.5071    1.4634 C.3     1  UNL1       -0.0063
      2 C           6.0217    0.1629    0.7994 C.ar    1  UNL1        0.1029
      3 C           5.8588    1.3912    0.2026 C.ar    1  UNL1       -0.0202
      4 C           4.5163    1.4366   -0.2513 C.ar    1  UNL1       -0.0110
      5 C           3.9286    0.2290    0.0936 C.ar    1  UNL1        0.1898
      6 C           2.5945   -0.3348   -0.0875 C.2     1  UNL1        0.2850
      7 O           2.3040   -1.4533    0.3248 O.2     1  UNL1       -0.2664
      8 N           1.7299    0.5076   -0.7546 N.am    1  UNL1       -0.2581
      9 C           0.4181    0.2777   -1.0740 C.ar    1  UNL1        0.1649
     10 N          -0.2765    1.1855   -1.7201 N.ar    1  UNL1       -0.2327
     11 C          -1.5653    0.7268   -1.9149 C.ar    1  UNL1        0.0403
     12 C          -1.8327   -0.5330   -1.4177 C.ar    1  UNL1        0.0154
     13 C          -3.1000   -1.3244   -1.4613 C.3     1  UNL1        0.0054
     14 C          -4.1693   -0.7652   -0.5481 C.ar    1  UNL1       -0.0423
     15 C          -5.2078    0.0267   -1.0647 C.ar    1  UNL1       -0.0555
     16 C          -6.1829    0.5520   -0.2152 C.ar    1  UNL1       -0.0262
     17 C          -6.1192    0.2902    1.1481 C.ar    1  UNL1        0.1234
     18 F          -7.0559    0.7962    1.9609 F       1  UNL1       -0.2055
     19 C          -5.0981   -0.4870    1.6802 C.ar    1  UNL1       -0.0262
     20 C          -4.1218   -1.0142    0.8339 C.ar    1  UNL1       -0.0555
     21 S          -0.4138   -1.1534   -0.6817 S.2     1  UNL1       -0.0567
     22 O           4.8621   -0.5434    0.7375 O.2     1  UNL1       -0.4553
     23 H           7.4089   -1.4373    0.9451 H       1  UNL1        0.0308
     24 H           6.9065   -0.7458    2.5016 H       1  UNL1        0.0308
     25 H           8.0443    0.1334    1.4653 H       1  UNL1        0.0308
     26 H           6.6139    2.1594    0.1069 H       1  UNL1        0.0652
     27 H           4.0496    2.2632   -0.7671 H       1  UNL1        0.0657
     28 H           2.0454    1.4114   -1.0664 H       1  UNL1        0.1571
     29 H          -2.2784    1.3599   -2.4296 H       1  UNL1        0.0838
     30 H          -3.4717   -1.3449   -2.4942 H       1  UNL1        0.0367
     31 H          -2.9250   -2.3755   -1.1971 H       1  UNL1        0.0367
     32 H          -5.2643    0.2390   -2.1300 H       1  UNL1        0.0621
     33 H          -6.9896    1.1635   -0.6063 H       1  UNL1        0.0646
     34 H          -5.0663   -0.6754    2.7485 H       1  UNL1        0.0646
     35 H          -3.3209   -1.6175    1.2575 H       1  UNL1        0.0621
@<TRIPOS>BOND
     1     1     2    1
     2     2     3   ar
     3     3     4   ar
     4     4     5   ar
     5     5     6    1
     6     6     7    2
     7     6     8   am
     8     8     9    1
     9     9    10   ar
    10    10    11   ar
    11    11    12   ar
    12    12    13    1
    13    13    14    1
    14    14    15   ar
    15    15    16   ar
    16    16    17   ar
    17    17    18    1
    18    17    19   ar
    19    19    20   ar
    20    12    21   ar
    21     5    22   ar
    22    22     2   ar
    23    21     9   ar
    24    20    14   ar
    25     1    23    1
    26     1    24    1
    27     1    25    1
    28     3    26    1
    29     4    27    1
    30     8    28    1
    31    11    29    1
    32    13    30    1
    33    13    31    1
    34    15    32    1
    35    16    33    1
    36    19    34    1
    37    20    35    1
