@<TRIPOS>MOLECULE
*****
 29 30 0 0 0
SMALL
GASTEIGER

@<TRIPOS>ATOM
      1 C           4.0015   -0.2107   -2.2515 C.3     1  UNL1       -0.0063
      2 C           3.4247   -0.8000   -1.0270 C.ar    1  UNL1        0.1029
      3 C           3.7140   -1.9275   -0.2906 C.ar    1  UNL1       -0.0202
      4 C           2.7947   -1.9465    0.7852 C.ar    1  UNL1       -0.0110
      5 C           1.9947   -0.8288    0.6471 C.ar    1  UNL1        0.1894
      6 C           0.8912   -0.3418    1.4480 C.2     1  UNL1        0.2796
      7 O           0.4708   -0.9171    2.4482 O.2     1  UNL1       -0.2668
      8 N           0.3404    0.8312    0.9806 N.am    1  UNL1       -0.3047
      9 C          -0.8458    1.4132    1.5519 C.3     1  UNL1        0.0373
     10 C          -2.0681    1.0206    0.7613 C.ar    1  UNL1       -0.0288
     11 C          -2.5667    1.8533   -0.2489 C.ar    1  UNL1       -0.0556
     12 C          -3.6852    1.4697   -0.9932 C.ar    1  UNL1       -0.0417
     13 C          -4.3139    0.2465   -0.7423 C.ar    1  UNL1        0.0593
     14 CL         -5.6908   -0.1604   -1.7037 Cl      1  UNL1       -0.0820
     15 C          -3.8189   -0.5971    0.2570 C.ar    1  UNL1        0.0596
     16 CL         -4.5384   -2.1258    0.6186 Cl      1  UNL1       -0.0820
     17 C          -2.6996   -0.2104    1.0019 C.ar    1  UNL1       -0.0373
     18 O           2.3822   -0.1256   -0.4661 O.2     1  UNL1       -0.4554
     19 H           4.3820    0.7951   -2.0493 H       1  UNL1        0.0308
     20 H           3.2429   -0.1426   -3.0372 H       1  UNL1        0.0308
     21 H           4.8292   -0.8194   -2.6282 H       1  UNL1        0.0308
     22 H           4.4914   -2.6484   -0.5035 H       1  UNL1        0.0652
     23 H           2.7119   -2.6817    1.5744 H       1  UNL1        0.0657
     24 H           0.6903    1.1761    0.0947 H       1  UNL1        0.1494
     25 H          -0.9598    1.1138    2.5999 H       1  UNL1        0.0512
     26 H          -0.7160    2.5010    1.5387 H       1  UNL1        0.0512
     27 H          -2.0882    2.8069   -0.4645 H       1  UNL1        0.0621
     28 H          -4.0617    2.1296   -1.7715 H       1  UNL1        0.0633
     29 H          -2.3087   -0.8731    1.7738 H       1  UNL1        0.0636
@<TRIPOS>BOND
     1     1     2    1
     2     2     3   ar
     3     3     4   ar
     4     4     5   ar
     5     5     6    1
     6     6     7    2
     7     6     8   am
     8     8     9    1
     9     9    10    1
    10    10    11   ar
    11    11    12   ar
    12    12    13   ar
    13    13    14    1
    14    13    15   ar
    15    15    16    1
    16    15    17   ar
    17     5    18   ar
    18    18     2   ar
    19    17    10   ar
    20     1    19    1
    21     1    20    1
    22     1    21    1
    23     3    22    1
    24     4    23    1
    25     8    24    1
    26     9    25    1
    27     9    26    1
    28    11    27    1
    29    12    28    1
    30    17    29    1
