@<TRIPOS>MOLECULE
*****
 44 50 0 0 0
SMALL
GASTEIGER

@<TRIPOS>ATOM
      1 SI         -4.9147    1.9281    2.2995 Si      1  UNL1        0.0000
      2 C          -5.9655    0.6712    1.3926 C.2     1  UNL1        0.0000
      3 C          -5.2063   -0.0768    0.5709 C.ar    1  UNL1        0.0000
      4 C          -5.6960   -1.1407   -0.2803 C.ar    1  UNL1        0.0000
      5 C          -4.8178   -1.8039   -1.0547 C.ar    1  UNL1        0.0000
      6 C          -3.3921   -1.4835   -1.0618 C.ar    1  UNL1        0.0000
      7 C          -2.8442   -0.5077   -0.2954 C.ar    1  UNL1        0.0000
      8 C          -1.3983   -0.2621   -0.3818 C.ar    1  UNL1        0.0000
      9 C          -0.5849   -0.9565    0.4515 C.ar    1  UNL1        0.0000
     10 C           0.8289   -0.7364    0.4013 C.ar    1  UNL1        0.0000
     11 S           1.8955   -1.5898    1.4281 S.2     1  UNL1        0.0000
     12 C           3.2676   -0.7543    0.7297 C.ar    1  UNL1        0.0000
     13 C           4.6850   -0.8032    0.9605 C.ar    1  UNL1        0.0000
     14 C           5.4468   -1.5796    1.8676 C.ar    1  UNL1        0.0000
     15 C           6.8374   -1.4494    1.9080 C.ar    1  UNL1        0.0000
     16 C           7.4811   -0.5591    1.0603 C.ar    1  UNL1        0.0000
     17 C           6.7502    0.2171    0.1573 C.ar    1  UNL1        0.0000
     18 C           5.3464    0.0865    0.1156 C.ar    1  UNL1        0.0000
     19 S           4.2767    0.9500   -0.9215 S.2     1  UNL1        0.0000
     20 C           2.8927    0.1338   -0.2449 C.ar    1  UNL1        0.0000
     21 C           1.4784    0.1507   -0.4417 C.ar    1  UNL1        0.0000
     22 C           0.6919    0.9285   -1.3511 C.ar    1  UNL1        0.0000
     23 C           1.0979    1.8463   -2.2492 C.2     1  UNL1        0.0000
     24 SI         -0.3484    2.5711   -3.1818 Si      1  UNL1        0.0000
     25 C          -1.4766    1.4717   -2.1883 C.2     1  UNL1        0.0000
     26 C          -0.7860    0.7100   -1.3132 C.ar    1  UNL1        0.0000
     27 C          -3.7601    0.2514    0.5702 C.ar    1  UNL1        0.0000
     28 C          -3.4193    1.2592    1.3995 C.2     1  UNL1        0.0000
     29 H          -5.2406    3.3203    1.9062 H       1  UNL1        0.0000
     30 H          -4.8645    1.6701    3.7589 H       1  UNL1        0.0000
     31 H          -7.0300    0.6039    1.5485 H       1  UNL1        0.0000
     32 H          -6.7518   -1.3857   -0.2820 H       1  UNL1        0.0000
     33 H          -5.1517   -2.6068   -1.7047 H       1  UNL1        0.0000
     34 H          -2.7727   -2.0772   -1.7299 H       1  UNL1        0.0000
     35 H          -0.9903   -1.6747    1.1591 H       1  UNL1        0.0000
     36 H           4.9513   -2.2799    2.5359 H       1  UNL1        0.0000
     37 H           7.4149   -2.0491    2.6074 H       1  UNL1        0.0000
     38 H           8.5638   -0.4628    1.0971 H       1  UNL1        0.0000
     39 H           7.2600    0.9125   -0.5041 H       1  UNL1        0.0000
     40 H           2.1005    2.1756   -2.4607 H       1  UNL1        0.0000
     41 H          -0.3276    2.2135   -4.6204 H       1  UNL1        0.0000
     42 H          -0.5471    4.0097   -2.8833 H       1  UNL1        0.0000
     43 H          -2.5451    1.4892   -2.3369 H       1  UNL1        0.0000
     44 H          -2.4354    1.6698    1.5621 H       1  UNL1        0.0000
@<TRIPOS>BOND
     1     1     2    1
     2     2     3    2
     3     3     4   ar
     4     4     5   ar
     5     5     6   ar
     6     6     7   ar
     7     7     8    1
     8     8     9   ar
     9     9    10   ar
    10    10    11   ar
    11    11    12   ar
    12    12    13   ar
    13    13    14   ar
    14    14    15   ar
    15    15    16   ar
    16    16    17   ar
    17    17    18   ar
    18    18    19   ar
    19    19    20   ar
    20    20    21   ar
    21    21    22   ar
    22    22    23    2
    23    23    24    1
    24    24    25    1
    25    25    26    2
    26     7    27   ar
    27    27    28    2
    28    28     1    1
    29    27     3   ar
    30    26     8   ar
    31    21    10   ar
    32    26    22   ar
    33    20    12   ar
    34    18    13   ar
    35     1    29    1
    36     1    30    1
    37     2    31    1
    38     4    32    1
    39     5    33    1
    40     6    34    1
    41     9    35    1
    42    14    36    1
    43    15    37    1
    44    16    38    1
    45    17    39    1
    46    23    40    1
    47    24    41    1
    48    24    42    1
    49    25    43    1
    50    28    44    1
