@<TRIPOS>MOLECULE
*****
 35 36 0 0 0
SMALL
GASTEIGER

@<TRIPOS>ATOM
      1 C          -5.3508   -0.6121   -1.7288 C.3     1  UNL1       -0.0397
      2 C          -4.3962   -0.3649   -0.5982 C.ar    1  UNL1       -0.0487
      3 C          -4.8479   -0.2765    0.7172 C.ar    1  UNL1       -0.0585
      4 C          -3.9411   -0.0624    1.7541 C.ar    1  UNL1       -0.0568
      5 C          -2.5646    0.0638    1.4974 C.ar    1  UNL1       -0.0292
      6 C          -1.6415    0.2920    2.6647 C.3     1  UNL1       -0.0380
      7 C          -2.0964   -0.0340    0.1692 C.ar    1  UNL1        0.0366
      8 N          -0.7103    0.0979   -0.0737 N.am    1  UNL1       -0.2846
      9 C          -0.0246   -0.0400   -1.2712 C.2     1  UNL1        0.2274
     10 O          -0.5123   -0.3140   -2.3645 O.2     1  UNL1       -0.2746
     11 C           1.4617    0.2660   -1.1447 C.3     1  UNL1        0.0765
     12 S           2.2185   -0.7252    0.1876 S.3     1  UNL1       -0.0966
     13 C           3.9072   -0.1721    0.0548 C.ar    1  UNL1        0.0973
     14 C           4.9105   -0.9104    0.6719 C.ar    1  UNL1       -0.0298
     15 C           6.2268   -0.4655    0.5764 C.ar    1  UNL1       -0.0578
     16 C           6.4997    0.7013   -0.1250 C.ar    1  UNL1       -0.0435
     17 C           5.4391    1.3766   -0.7043 C.ar    1  UNL1        0.0288
     18 N           4.1531    0.9681   -0.6263 N.ar    1  UNL1       -0.2488
     19 C          -3.0221   -0.2469   -0.8604 C.ar    1  UNL1       -0.0373
     20 H          -5.1826    0.1124   -2.5339 H       1  UNL1        0.0278
     21 H          -5.2108   -1.6246   -2.1219 H       1  UNL1        0.0278
     22 H          -6.3922   -0.5123   -1.4049 H       1  UNL1        0.0278
     23 H          -5.9064   -0.3745    0.9460 H       1  UNL1        0.0620
     24 H          -4.3195    0.0044    2.7722 H       1  UNL1        0.0621
     25 H          -2.1902    0.3406    3.6115 H       1  UNL1        0.0278
     26 H          -0.9224   -0.5296    2.7462 H       1  UNL1        0.0278
     27 H          -1.1064    1.2404    2.5482 H       1  UNL1        0.0278
     28 H          -0.1198    0.2421    0.7357 H       1  UNL1        0.1548
     29 H           1.5694    1.3373   -0.9450 H       1  UNL1        0.0475
     30 H           1.9474    0.0270   -2.0961 H       1  UNL1        0.0475
     31 H           4.6815   -1.8211    1.2147 H       1  UNL1        0.0644
     32 H           7.0304   -1.0270    1.0439 H       1  UNL1        0.0619
     33 H           7.5134    1.0746   -0.2204 H       1  UNL1        0.0633
     34 H           5.5999    2.2937   -1.2643 H       1  UNL1        0.0830
     35 H          -2.7006   -0.3248   -1.8944 H       1  UNL1        0.0639
@<TRIPOS>BOND
     1     1     2    1
     2     2     3   ar
     3     3     4   ar
     4     4     5   ar
     5     5     6    1
     6     5     7   ar
     7     7     8    1
     8     8     9   am
     9     9    10    2
    10     9    11    1
    11    11    12    1
    12    12    13    1
    13    13    14   ar
    14    14    15   ar
    15    15    16   ar
    16    16    17   ar
    17    17    18   ar
    18     7    19   ar
    19    19     2   ar
    20    18    13   ar
    21     1    20    1
    22     1    21    1
    23     1    22    1
    24     3    23    1
    25     4    24    1
    26     6    25    1
    27     6    26    1
    28     6    27    1
    29     8    28    1
    30    11    29    1
    31    11    30    1
    32    14    31    1
    33    15    32    1
    34    16    33    1
    35    17    34    1
    36    19    35    1
