@<TRIPOS>MOLECULE
*****
 50 51 0 0 0
SMALL
GASTEIGER

@<TRIPOS>ATOM
      1 C          -5.7698   -0.5319    1.9119 C.3     1  UNL1       -0.0393
      2 C          -4.9608    0.1911    0.8690 C.ar    1  UNL1       -0.0441
      3 C          -5.6295    0.9909   -0.0700 C.ar    1  UNL1       -0.0581
      4 C          -4.9229    1.7011   -1.0410 C.ar    1  UNL1       -0.0551
      5 C          -3.5290    1.6233   -1.1034 C.ar    1  UNL1       -0.0085
      6 C          -2.7885    2.3936   -2.1586 C.3     1  UNL1       -0.0362
      7 C          -2.8617    0.7888   -0.1925 C.ar    1  UNL1        0.1266
      8 O          -1.4930    0.6896   -0.2708 O.3     1  UNL1       -0.4888
      9 C          -1.1235   -0.4186   -1.1016 C.3     1  UNL1        0.1166
     10 C           0.4067   -0.4787   -1.2313 C.3     1  UNL1        0.1018
     11 O           0.7372   -1.5116   -2.1711 O.3     1  UNL1       -0.3872
     12 C           1.0748   -0.7313    0.1481 C.3     1  UNL1        0.0281
     13 N           2.5397   -0.6079    0.2363 N.3     1  UNL1       -0.2998
     14 C           3.2900   -1.4452   -0.6910 C.3     1  UNL1       -0.0008
     15 C           4.7534   -1.5416   -0.2376 C.3     1  UNL1       -0.0376
     16 C           5.3492   -0.1952    0.2181 C.3     1  UNL1       -0.0416
     17 C           5.5943   -0.1813    1.7298 C.3     1  UNL1       -0.0623
     18 C           4.4497    0.9674   -0.2124 C.3     1  UNL1       -0.0376
     19 C           2.9914    0.7895    0.2337 C.3     1  UNL1       -0.0008
     20 C          -3.5521    0.1125    0.8337 C.ar    1  UNL1       -0.0056
     21 C          -2.8032   -0.7110    1.8487 C.3     1  UNL1       -0.0360
     22 H          -6.8374   -0.5242    1.6669 H       1  UNL1        0.0278
     23 H          -5.6434   -0.0509    2.8869 H       1  UNL1        0.0278
     24 H          -5.4650   -1.5811    1.9788 H       1  UNL1        0.0278
     25 H          -6.7143    1.0743   -0.0464 H       1  UNL1        0.0620
     26 H          -5.4715    2.3202   -1.7471 H       1  UNL1        0.0621
     27 H          -3.3798    3.2453   -2.5119 H       1  UNL1        0.0279
     28 H          -2.5695    1.7476   -3.0141 H       1  UNL1        0.0279
     29 H          -1.8515    2.7997   -1.7636 H       1  UNL1        0.0279
     30 H          -1.4929   -1.3626   -0.6796 H       1  UNL1        0.0723
     31 H          -1.5609   -0.3172   -2.1032 H       1  UNL1        0.0723
     32 H           0.7580    0.4715   -1.6468 H       1  UNL1        0.0640
     33 H           0.6444   -2.3660   -1.7154 H       1  UNL1        0.2100
     34 H           0.8190   -1.7483    0.4738 H       1  UNL1        0.0453
     35 H           0.6380   -0.0647    0.9018 H       1  UNL1        0.0453
     36 H           2.8825   -2.4630   -0.7147 H       1  UNL1        0.0427
     37 H           3.2430   -1.0517   -1.7139 H       1  UNL1        0.0427
     38 H           4.8413   -2.2882    0.5619 H       1  UNL1        0.0280
     39 H           5.3444   -1.9286   -1.0776 H       1  UNL1        0.0280
     40 H           6.3278   -0.0700   -0.2633 H       1  UNL1        0.0299
     41 H           6.3054   -0.9657    2.0105 H       1  UNL1        0.0232
     42 H           4.6723   -0.3477    2.2961 H       1  UNL1        0.0232
     43 H           6.0174    0.7782    2.0453 H       1  UNL1        0.0232
     44 H           4.4779    1.0398   -1.3081 H       1  UNL1        0.0280
     45 H           4.8386    1.9196    0.1675 H       1  UNL1        0.0280
     46 H           2.3718    1.4188   -0.4155 H       1  UNL1        0.0427
     47 H           2.8769    1.1843    1.2504 H       1  UNL1        0.0427
     48 H          -3.2370   -0.5945    2.8470 H       1  UNL1        0.0279
     49 H          -2.8305   -1.7678    1.5660 H       1  UNL1        0.0279
     50 H          -1.7576   -0.4006    1.9368 H       1  UNL1        0.0279
@<TRIPOS>BOND
     1     1     2    1
     2     2     3   ar
     3     3     4   ar
     4     4     5   ar
     5     5     6    1
     6     5     7   ar
     7     7     8    1
     8     8     9    1
     9     9    10    1
    10    10    11    1
    11    10    12    1
    12    12    13    1
    13    13    14    1
    14    14    15    1
    15    15    16    1
    16    16    17    1
    17    16    18    1
    18    18    19    1
    19     7    20   ar
    20    20    21    1
    21    20     2   ar
    22    19    13    1
    23     1    22    1
    24     1    23    1
    25     1    24    1
    26     3    25    1
    27     4    26    1
    28     6    27    1
    29     6    28    1
    30     6    29    1
    31     9    30    1
    32     9    31    1
    33    10    32    1
    34    11    33    1
    35    12    34    1
    36    12    35    1
    37    14    36    1
    38    14    37    1
    39    15    38    1
    40    15    39    1
    41    16    40    1
    42    17    41    1
    43    17    42    1
    44    17    43    1
    45    18    44    1
    46    18    45    1
    47    19    46    1
    48    19    47    1
    49    21    48    1
    50    21    49    1
    51    21    50    1
