@<TRIPOS>MOLECULE
*****
 35 36 0 0 0
SMALL
GASTEIGER

@<TRIPOS>ATOM
      1 C          -3.9712    3.0251   -1.6596 C.3     1  UNL1       -0.0397
      2 C          -3.6766    1.6584   -1.1164 C.ar    1  UNL1       -0.0494
      3 C          -4.6538    0.6615   -1.1370 C.ar    1  UNL1       -0.0585
      4 C          -4.3910   -0.5976   -0.5936 C.ar    1  UNL1       -0.0575
      5 C          -3.1471   -0.8879   -0.0110 C.ar    1  UNL1       -0.0370
      6 C          -2.9176   -2.2573    0.5685 C.3     1  UNL1       -0.0387
      7 C          -2.1613    0.1151    0.0155 C.ar    1  UNL1        0.0115
      8 S          -0.5441   -0.1493    0.7359 S.3     1  UNL1       -0.1156
      9 C           0.3553   -0.6004   -0.7869 C.3     1  UNL1        0.0751
     10 C           1.8158   -0.9439   -0.5167 C.2     1  UNL1        0.2275
     11 O           2.3849   -1.7963   -1.1954 O.2     1  UNL1       -0.2746
     12 N           2.4125   -0.1700    0.4590 N.am    1  UNL1       -0.2824
     13 C           3.7556   -0.1986    0.9032 C.ar    1  UNL1        0.0707
     14 C           4.7407   -1.0133    0.3496 C.ar    1  UNL1       -0.0361
     15 C           6.0424   -0.9709    0.8540 C.ar    1  UNL1       -0.0417
     16 C           6.3246   -0.1093    1.9015 C.ar    1  UNL1        0.0294
     17 N           5.4089    0.7001    2.4687 N.ar    1  UNL1       -0.2417
     18 C           4.1582    0.6326    1.9576 C.ar    1  UNL1        0.1503
     19 CL          3.0504    1.7022    2.7369 Cl      1  UNL1       -0.0601
     20 C          -2.4384    1.3809   -0.5243 C.ar    1  UNL1       -0.0451
     21 H          -3.0620    3.4944   -2.0499 H       1  UNL1        0.0278
     22 H          -4.6883    2.9712   -2.4855 H       1  UNL1        0.0278
     23 H          -4.3868    3.6596   -0.8708 H       1  UNL1        0.0278
     24 H          -5.6314    0.8583   -1.5724 H       1  UNL1        0.0620
     25 H          -5.1734   -1.3535   -0.6230 H       1  UNL1        0.0621
     26 H          -2.6953   -2.1887    1.6383 H       1  UNL1        0.0278
     27 H          -3.8039   -2.8921    0.4613 H       1  UNL1        0.0278
     28 H          -2.0940   -2.7596    0.0513 H       1  UNL1        0.0278
     29 H           0.3275    0.2293   -1.5003 H       1  UNL1        0.0474
     30 H          -0.1248   -1.4763   -1.2349 H       1  UNL1        0.0474
     31 H           1.7916    0.4511    0.9760 H       1  UNL1        0.1549
     32 H           4.5335   -1.6910   -0.4722 H       1  UNL1        0.0637
     33 H           6.8190   -1.6014    0.4329 H       1  UNL1        0.0633
     34 H           7.3249   -0.0471    2.3216 H       1  UNL1        0.0830
     35 H          -1.6846    2.1648   -0.4818 H       1  UNL1        0.0631
@<TRIPOS>BOND
     1     1     2    1
     2     2     3   ar
     3     3     4   ar
     4     4     5   ar
     5     5     6    1
     6     5     7   ar
     7     7     8    1
     8     8     9    1
     9     9    10    1
    10    10    11    2
    11    10    12   am
    12    12    13    1
    13    13    14   ar
    14    14    15   ar
    15    15    16   ar
    16    16    17   ar
    17    17    18   ar
    18    18    19    1
    19     7    20   ar
    20    20     2   ar
    21    18    13   ar
    22     1    21    1
    23     1    22    1
    24     1    23    1
    25     3    24    1
    26     4    25    1
    27     6    26    1
    28     6    27    1
    29     6    28    1
    30     9    29    1
    31     9    30    1
    32    12    31    1
    33    14    32    1
    34    15    33    1
    35    16    34    1
    36    20    35    1
