@<TRIPOS>MOLECULE
*****
 28 29 0 0 0
SMALL
GASTEIGER

@<TRIPOS>ATOM
      1 C          -1.6077    2.5411   -0.0613 C.3     1  UNL1       -0.0239
      2 C          -1.9534    1.1050    0.1431 C.ar    1  UNL1        0.0209
      3 C          -3.1834    0.5926    0.5094 C.ar    1  UNL1       -0.0406
      4 C          -3.0361   -0.7917    0.6950 C.ar    1  UNL1       -0.0406
      5 C          -1.7226   -1.1197    0.4185 C.ar    1  UNL1        0.0209
      6 C          -1.1320   -2.4888    0.3787 C.3     1  UNL1       -0.0239
      7 N          -1.0415    0.0507    0.0826 N.ar    1  UNL1       -0.3176
      8 C           0.3381    0.1526   -0.2608 C.ar    1  UNL1        0.0483
      9 C           0.7321    0.9160   -1.3644 C.ar    1  UNL1       -0.0377
     10 C           2.0798    0.9795   -1.7162 C.ar    1  UNL1       -0.0581
     11 C           3.0348    0.3020   -0.9556 C.ar    1  UNL1       -0.0409
     12 C           2.6630   -0.4098    0.1872 C.ar    1  UNL1        0.0265
     13 N           3.6106   -1.1730    0.8806 N.pl3   1  UNL1       -0.3579
     14 C           1.3044   -0.5232    0.4982 C.ar    1  UNL1       -0.0172
     15 H          -1.6143    2.7942   -1.1255 H       1  UNL1        0.0292
     16 H          -2.3451    3.1843    0.4320 H       1  UNL1        0.0292
     17 H          -0.6315    2.7899    0.3658 H       1  UNL1        0.0292
     18 H          -4.0887    1.1701    0.6486 H       1  UNL1        0.0635
     19 H          -3.8125   -1.4917    0.9774 H       1  UNL1        0.0635
     20 H          -0.4402   -2.6105   -0.4602 H       1  UNL1        0.0292
     21 H          -0.6128   -2.7150    1.3145 H       1  UNL1        0.0292
     22 H          -1.9204   -3.2395    0.2530 H       1  UNL1        0.0292
     23 H           0.0028    1.4123   -1.9980 H       1  UNL1        0.0638
     24 H           2.3858    1.5375   -2.5972 H       1  UNL1        0.0619
     25 H           4.0763    0.3362   -1.2639 H       1  UNL1        0.0636
     26 H           3.3459   -1.3854    1.8375 H       1  UNL1        0.1423
     27 H           4.5563   -0.8098    0.8150 H       1  UNL1        0.1423
     28 H           1.0124   -1.1062    1.3662 H       1  UNL1        0.0657
@<TRIPOS>BOND
     1     1     2    1
     2     2     3   ar
     3     3     4   ar
     4     4     5   ar
     5     5     6    1
     6     5     7   ar
     7     7     8    1
     8     8     9   ar
     9     9    10   ar
    10    10    11   ar
    11    11    12   ar
    12    12    13    1
    13    12    14   ar
    14     7     2   ar
    15    14     8   ar
    16     1    15    1
    17     1    16    1
    18     1    17    1
    19     3    18    1
    20     4    19    1
    21     6    20    1
    22     6    21    1
    23     6    22    1
    24     9    23    1
    25    10    24    1
    26    11    25    1
    27    13    26    1
    28    13    27    1
    29    14    28    1
