@<TRIPOS>MOLECULE
*****
 37 39 0 0 0
SMALL
GASTEIGER

@<TRIPOS>ATOM
      1 C           6.4364   -0.1978    0.4748 C.3     1  UNL1       -0.0397
      2 C           4.9604   -0.1134    0.2222 C.ar    1  UNL1       -0.0504
      3 C           4.4655    0.6382   -0.8484 C.ar    1  UNL1       -0.0583
      4 C           3.0879    0.7435   -1.0662 C.ar    1  UNL1       -0.0543
      5 C           2.1806    0.0989   -0.2171 C.ar    1  UNL1       -0.0249
      6 C           0.7252    0.2033   -0.3907 C.2     1  UNL1       -0.0509
      7 C           0.1176    0.2243   -1.5872 C.2     1  UNL1       -0.0122
      8 C          -1.3572    0.3512   -1.7716 C.2     1  UNL1        0.2044
      9 O          -1.7405    0.9040   -2.8020 O.2     1  UNL1       -0.2856
     10 C          -2.2672   -0.1459   -0.7678 C.ar    1  UNL1        0.1159
     11 C          -2.2587   -1.3340   -0.0453 C.ar    1  UNL1        0.0681
     12 C          -1.3259   -2.4858   -0.1146 C.3     1  UNL1       -0.0201
     13 N          -3.3186   -1.3898    0.8281 N.ar    1  UNL1       -0.2323
     14 C          -4.0057   -0.2896    0.6212 C.ar    1  UNL1        0.1384
     15 C          -5.2053    0.1862    1.2231 C.ar    1  UNL1       -0.0188
     16 C          -5.7310    1.3627    0.8322 C.ar    1  UNL1       -0.0569
     17 C          -5.0992    2.1683   -0.1991 C.ar    1  UNL1       -0.0450
     18 C          -3.9655    1.7257   -0.7688 C.ar    1  UNL1        0.0119
     19 N          -3.4210    0.5032   -0.3630 N.ar    1  UNL1       -0.2964
     20 C           2.6783   -0.6261    0.8724 C.ar    1  UNL1       -0.0543
     21 C           4.0554   -0.7323    1.0902 C.ar    1  UNL1       -0.0583
     22 H           6.9970   -0.1447   -0.4645 H       1  UNL1        0.0278
     23 H           6.7529    0.6251    1.1230 H       1  UNL1        0.0278
     24 H           6.6968   -1.1471    0.9546 H       1  UNL1        0.0278
     25 H           5.1494    1.1528   -1.5200 H       1  UNL1        0.0620
     26 H           2.7394    1.3489   -1.8994 H       1  UNL1        0.0624
     27 H           0.1521    0.2539    0.5325 H       1  UNL1        0.0625
     28 H           0.6739    0.2097   -2.5187 H       1  UNL1        0.0657
     29 H          -1.8549   -3.4188    0.1056 H       1  UNL1        0.0293
     30 H          -0.5228   -2.3716    0.6192 H       1  UNL1        0.0293
     31 H          -0.8843   -2.5842   -1.1106 H       1  UNL1        0.0293
     32 H          -5.6737   -0.4199    1.9900 H       1  UNL1        0.0654
     33 H          -6.6465    1.7369    1.2804 H       1  UNL1        0.0619
     34 H          -5.5565    3.1085   -0.4886 H       1  UNL1        0.0632
     35 H          -3.4491    2.2791   -1.5435 H       1  UNL1        0.0813
     36 H           1.9997   -1.1218    1.5634 H       1  UNL1        0.0624
     37 H           4.4154   -1.3017    1.9443 H       1  UNL1        0.0620
@<TRIPOS>BOND
     1     1     2    1
     2     2     3   ar
     3     3     4   ar
     4     4     5   ar
     5     5     6    1
     6     6     7    2
     7     7     8    1
     8     8     9    2
     9     8    10    1
    10    10    11   ar
    11    11    12    1
    12    11    13   ar
    13    13    14   ar
    14    14    15   ar
    15    15    16   ar
    16    16    17   ar
    17    17    18   ar
    18    18    19   ar
    19     5    20   ar
    20    20    21   ar
    21    21     2   ar
    22    19    10   ar
    23    19    14   ar
    24     1    22    1
    25     1    23    1
    26     1    24    1
    27     3    25    1
    28     4    26    1
    29     6    27    1
    30     7    28    1
    31    12    29    1
    32    12    30    1
    33    12    31    1
    34    15    32    1
    35    16    33    1
    36    17    34    1
    37    18    35    1
    38    20    36    1
    39    21    37    1
