@<TRIPOS>MOLECULE
*****
 39 40 0 0 0
SMALL
GASTEIGER

@<TRIPOS>ATOM
      1 C           6.9924    1.0054   -0.6212 C.3     1  UNL1       -0.0063
      2 C           5.7123    0.5334   -0.0594 C.ar    1  UNL1        0.1027
      3 C           5.3224    0.1022    1.1840 C.ar    1  UNL1       -0.0204
      4 C           3.9472   -0.2152    1.0709 C.ar    1  UNL1       -0.0162
      5 C           3.5496    0.0351   -0.2395 C.ar    1  UNL1        0.1282
      6 C           2.2940   -0.1080   -0.8917 C.2     1  UNL1       -0.0144
      7 C           1.1840   -0.5046   -0.2534 C.2     1  UNL1        0.0038
      8 C          -0.0789   -0.6484   -1.0223 C.2     1  UNL1        0.2396
      9 O          -0.0458   -0.8611   -2.2326 O.2     1  UNL1       -0.2706
     10 N          -1.2640   -0.5584   -0.3060 N.am    1  UNL1       -0.2975
     11 C          -2.4986   -0.8831   -1.0187 C.3     1  UNL1        0.0175
     12 C          -3.6568   -1.1811   -0.0658 C.3     1  UNL1       -0.0277
     13 C          -4.9139   -1.5817   -0.8343 C.3     1  UNL1       -0.0610
     14 C          -3.9332    0.0215    0.8484 C.3     1  UNL1       -0.0450
     15 C          -2.6557    0.7408    1.3197 C.3     1  UNL1       -0.0277
     16 C          -2.5318    2.1247    0.6708 C.3     1  UNL1       -0.0610
     17 C          -1.3880   -0.0910    1.0775 C.3     1  UNL1        0.0175
     18 O           4.6591    0.4967   -0.9155 O.2     1  UNL1       -0.4606
     19 H           6.8904    2.0263   -1.0018 H       1  UNL1        0.0308
     20 H           7.3107    0.3590   -1.4449 H       1  UNL1        0.0308
     21 H           7.7799    1.0019    0.1386 H       1  UNL1        0.0308
     22 H           5.9483    0.0236    2.0616 H       1  UNL1        0.0652
     23 H           3.3152   -0.5905    1.8629 H       1  UNL1        0.0655
     24 H           2.2653    0.1270   -1.9535 H       1  UNL1        0.0656
     25 H           1.1741   -0.7683    0.7934 H       1  UNL1        0.0670
     26 H          -2.7364   -0.0333   -1.6704 H       1  UNL1        0.0467
     27 H          -2.3138   -1.7464   -1.6697 H       1  UNL1        0.0467
     28 H          -3.3707   -2.0316    0.5684 H       1  UNL1        0.0313
     29 H          -5.2437   -0.7804   -1.5043 H       1  UNL1        0.0233
     30 H          -5.7344   -1.8079   -0.1453 H       1  UNL1        0.0233
     31 H          -4.7294   -2.4744   -1.4412 H       1  UNL1        0.0233
     32 H          -4.4840   -0.3379    1.7278 H       1  UNL1        0.0271
     33 H          -4.6054    0.7323    0.3510 H       1  UNL1        0.0271
     34 H          -2.7426    0.9128    2.4007 H       1  UNL1        0.0313
     35 H          -2.4670    2.0607   -0.4198 H       1  UNL1        0.0233
     36 H          -1.6379    2.6441    1.0325 H       1  UNL1        0.0233
     37 H          -3.3984    2.7463    0.9205 H       1  UNL1        0.0233
     38 H          -0.5111    0.4957    1.3676 H       1  UNL1        0.0467
     39 H          -1.4036   -0.9862    1.7110 H       1  UNL1        0.0467
@<TRIPOS>BOND
     1     1     2    1
     2     2     3   ar
     3     3     4   ar
     4     4     5   ar
     5     5     6    1
     6     6     7    2
     7     7     8    1
     8     8     9    2
     9     8    10   am
    10    10    11    1
    11    11    12    1
    12    12    13    1
    13    12    14    1
    14    14    15    1
    15    15    16    1
    16    15    17    1
    17     5    18   ar
    18    18     2   ar
    19    17    10    1
    20     1    19    1
    21     1    20    1
    22     1    21    1
    23     3    22    1
    24     4    23    1
    25     6    24    1
    26     7    25    1
    27    11    26    1
    28    11    27    1
    29    12    28    1
    30    13    29    1
    31    13    30    1
    32    13    31    1
    33    14    32    1
    34    14    33    1
    35    15    34    1
    36    16    35    1
    37    16    36    1
    38    16    37    1
    39    17    38    1
    40    17    39    1
