@<TRIPOS>MOLECULE
*****
 36 38 0 0 0
SMALL
GASTEIGER

@<TRIPOS>ATOM
      1 C           2.3489   -2.2054   -0.6943 C.3     1  UNL1       -0.0063
      2 C           3.1273   -0.9540   -0.6193 C.ar    1  UNL1        0.1027
      3 C           4.4682   -0.6577   -0.7089 C.ar    1  UNL1       -0.0203
      4 C           4.5732    0.7463   -0.5518 C.ar    1  UNL1       -0.0147
      5 C           3.2891    1.2291   -0.3742 C.ar    1  UNL1        0.1461
      6 C           2.8274    2.5823   -0.1666 C.2     1  UNL1        0.0711
      7 N           1.6282    3.0579    0.0167 N.2     1  UNL1       -0.2435
      8 C           0.5634    2.2133    0.0329 C.ar    1  UNL1        0.1190
      9 S          -0.4059    2.0688   -1.3743 S.2     1  UNL1       -0.0727
     10 C          -1.4522    0.9250   -0.6491 C.ar    1  UNL1       -0.0037
     11 C          -1.1315    0.6930    0.6808 C.ar    1  UNL1       -0.0177
     12 C           0.0398    1.4484    1.0599 C.ar    1  UNL1        0.0877
     13 C           0.6494    1.4185    2.3583 C.1     1  UNL1        0.1021
     14 N           1.1263    1.3695    3.4162 N.1     1  UNL1       -0.1908
     15 C          -1.8729   -0.2362    1.6121 C.3     1  UNL1       -0.0256
     16 C          -3.3724   -0.3299    1.3371 C.3     1  UNL1       -0.0490
     17 C          -3.7407   -1.2404    0.1640 C.3     1  UNL1       -0.0524
     18 C          -2.8860   -1.1017   -1.0974 C.3     1  UNL1       -0.0486
     19 C          -2.5650    0.3419   -1.4784 C.3     1  UNL1       -0.0211
     20 O           2.4115    0.1838   -0.4179 O.2     1  UNL1       -0.4591
     21 H           3.0043   -3.0673   -0.8518 H       1  UNL1        0.0308
     22 H           1.6352   -2.1627   -1.5228 H       1  UNL1        0.0308
     23 H           1.7913   -2.3651    0.2338 H       1  UNL1        0.0308
     24 H           5.2703   -1.3656   -0.8661 H       1  UNL1        0.0652
     25 H           5.4788    1.3372   -0.5638 H       1  UNL1        0.0656
     26 H           3.6309    3.3399   -0.1620 H       1  UNL1        0.0867
     27 H          -1.7540    0.1282    2.6401 H       1  UNL1        0.0314
     28 H          -1.4116   -1.2305    1.5747 H       1  UNL1        0.0314
     29 H          -3.7904    0.6718    1.1737 H       1  UNL1        0.0268
     30 H          -3.8718   -0.7235    2.2315 H       1  UNL1        0.0268
     31 H          -4.7909   -1.0532   -0.0936 H       1  UNL1        0.0265
     32 H          -3.6943   -2.2862    0.4932 H       1  UNL1        0.0265
     33 H          -3.4331   -1.5733   -1.9235 H       1  UNL1        0.0269
     34 H          -1.9591   -1.6780   -0.9803 H       1  UNL1        0.0269
     35 H          -3.4588    0.9716   -1.3925 H       1  UNL1        0.0318
     36 H          -2.2729    0.3489   -2.5366 H       1  UNL1        0.0318
@<TRIPOS>BOND
     1     1     2    1
     2     2     3   ar
     3     3     4   ar
     4     4     5   ar
     5     5     6    1
     6     6     7    2
     7     7     8    1
     8     8     9   ar
     9     9    10   ar
    10    10    11   ar
    11    11    12   ar
    12    12    13    1
    13    13    14    3
    14    11    15    1
    15    15    16    1
    16    16    17    1
    17    17    18    1
    18    18    19    1
    19     5    20   ar
    20    20     2   ar
    21    12     8   ar
    22    19    10    1
    23     1    21    1
    24     1    22    1
    25     1    23    1
    26     3    24    1
    27     4    25    1
    28     6    26    1
    29    15    27    1
    30    15    28    1
    31    16    29    1
    32    16    30    1
    33    17    31    1
    34    17    32    1
    35    18    33    1
    36    18    34    1
    37    19    35    1
    38    19    36    1
