@<TRIPOS>MOLECULE
*****
 32 34 0 0 0
SMALL
GASTEIGER

@<TRIPOS>ATOM
      1 C           3.8863   -1.5644    1.5982 C.3     1  UNL1       -0.0334
      2 C           3.3310   -1.1447    0.2809 C.ar    1  UNL1       -0.0127
      3 C           3.9855   -1.0126   -0.9251 C.ar    1  UNL1       -0.0512
      4 C           3.1115   -0.5843   -1.9663 C.ar    1  UNL1       -0.0457
      5 C           1.8229   -0.3686   -1.5176 C.ar    1  UNL1        0.0322
      6 C           0.6877    0.0309   -2.3218 C.2     1  UNL1        0.0622
      7 N          -0.3282    0.7941   -2.0320 N.2     1  UNL1       -0.1700
      8 N          -0.3054    1.4935   -0.8681 N.ar    1  UNL1       -0.1880
      9 C          -1.2500    1.4578    0.1244 C.ar    1  UNL1        0.1835
     10 C          -2.3477    0.4724    0.1652 C.ar    1  UNL1        0.0209
     11 C          -2.7375   -0.0266    1.4152 C.ar    1  UNL1       -0.0510
     12 C          -3.7781   -0.9523    1.5100 C.ar    1  UNL1       -0.0611
     13 C          -4.4416   -1.3740    0.3588 C.ar    1  UNL1       -0.0617
     14 C          -4.0713   -0.8658   -0.8859 C.ar    1  UNL1       -0.0611
     15 C          -3.0297    0.0601   -0.9840 C.ar    1  UNL1       -0.0510
     16 N          -1.0665    2.3582    1.0576 N.ar    1  UNL1       -0.1515
     17 N           0.0298    3.0685    0.6417 N.ar    1  UNL1       -0.2525
     18 C           0.4815    2.5974   -0.5899 C.ar    1  UNL1        0.1968
     19 S           1.6917    3.3220   -1.4655 S.2     1  UNL1       -0.0097
     20 S           1.6706   -0.7643    0.1384 S.2     1  UNL1       -0.0925
     21 H           3.3983   -2.4786    1.9520 H       1  UNL1        0.0283
     22 H           3.7441   -0.7790    2.3479 H       1  UNL1        0.0283
     23 H           4.9602   -1.7654    1.5237 H       1  UNL1        0.0283
     24 H           5.0420   -1.2141   -1.0582 H       1  UNL1        0.0626
     25 H           3.4241   -0.4206   -2.9910 H       1  UNL1        0.0629
     26 H           0.6789   -0.3928   -3.3418 H       1  UNL1        0.0859
     27 H          -2.2284    0.3008    2.3194 H       1  UNL1        0.0625
     28 H          -4.0724   -1.3402    2.4819 H       1  UNL1        0.0618
     29 H          -5.2543   -2.0925    0.4326 H       1  UNL1        0.0618
     30 H          -4.5996   -1.1837   -1.7814 H       1  UNL1        0.0618
     31 H          -2.7789    0.4661   -1.9597 H       1  UNL1        0.0625
     32 H           0.3435    3.9026    1.1222 H       1  UNL1        0.1911
@<TRIPOS>BOND
     1     1     2    1
     2     2     3   ar
     3     3     4   ar
     4     4     5   ar
     5     5     6    1
     6     6     7    2
     7     7     8    1
     8     8     9   ar
     9     9    10    1
    10    10    11   ar
    11    11    12   ar
    12    12    13   ar
    13    13    14   ar
    14    14    15   ar
    15     9    16   ar
    16    16    17   ar
    17    17    18   ar
    18    18    19    2
    19     5    20   ar
    20    20     2   ar
    21    18     8   ar
    22    15    10   ar
    23     1    21    1
    24     1    22    1
    25     1    23    1
    26     3    24    1
    27     4    25    1
    28     6    26    1
    29    11    27    1
    30    12    28    1
    31    13    29    1
    32    14    30    1
    33    15    31    1
    34    17    32    1
