@<TRIPOS>MOLECULE
*****
 35 36 0 0 0
SMALL
GASTEIGER

@<TRIPOS>ATOM
      1 C          -2.3705    1.1802    2.0985 C.3     1  UNL1       -0.0063
      2 C          -2.4786   -0.2825    1.9293 C.ar    1  UNL1        0.1027
      3 C          -3.0362   -1.2840    2.6922 C.ar    1  UNL1       -0.0203
      4 C          -2.8167   -2.4908    1.9841 C.ar    1  UNL1       -0.0146
      5 C          -2.1356   -2.1580    0.8283 C.ar    1  UNL1        0.1475
      6 C          -1.6713   -2.9849   -0.2579 C.2     1  UNL1        0.0878
      7 N          -1.0172   -2.6369   -1.3284 N.2     1  UNL1       -0.1846
      8 N          -0.6705   -1.3275   -1.4853 N.am    1  UNL1       -0.2054
      9 C           0.0251   -0.9224   -2.6134 C.2     1  UNL1        0.2537
     10 O           0.3372   -1.6514   -3.5551 O.2     1  UNL1       -0.2721
     11 C           0.3435    0.5499   -2.6316 C.3     1  UNL1        0.1195
     12 N           1.2093    0.9135   -1.5269 N.ar    1  UNL1       -0.2583
     13 N           0.6437    1.3982   -0.3984 N.ar    1  UNL1       -0.1747
     14 C           1.6843    1.6444    0.4100 C.ar    1  UNL1        0.0741
     15 C           1.4600    2.2062    1.7639 C.3     1  UNL1       -0.0195
     16 C           2.8993    1.2913   -0.2103 C.ar    1  UNL1        0.0611
     17 BR          4.5978    1.4462    0.5635 Br      1  UNL1       -0.0466
     18 C           2.5780    0.8203   -1.4613 C.ar    1  UNL1        0.0509
     19 C           3.4146    0.2954   -2.5693 C.3     1  UNL1       -0.0216
     20 O          -1.9267   -0.8066    0.8012 O.2     1  UNL1       -0.4590
     21 H          -3.3079    1.5931    2.4839 H       1  UNL1        0.0308
     22 H          -2.1497    1.6749    1.1476 H       1  UNL1        0.0308
     23 H          -1.5724    1.4213    2.8067 H       1  UNL1        0.0308
     24 H          -3.5414   -1.1578    3.6402 H       1  UNL1        0.0652
     25 H          -3.1222   -3.4853    2.2792 H       1  UNL1        0.0656
     26 H          -1.9118   -4.0584   -0.1715 H       1  UNL1        0.0883
     27 H          -0.8417   -0.6735   -0.7152 H       1  UNL1        0.1773
     28 H          -0.5806    1.1340   -2.5660 H       1  UNL1        0.0606
     29 H           0.8478    0.8163   -3.5656 H       1  UNL1        0.0606
     30 H           1.5802    1.4271    2.5235 H       1  UNL1        0.0293
     31 H           2.1699    3.0117    1.9757 H       1  UNL1        0.0293
     32 H           0.4531    2.6247    1.8597 H       1  UNL1        0.0293
     33 H           3.3667    0.9629   -3.4353 H       1  UNL1        0.0293
     34 H           3.0759   -0.6988   -2.8764 H       1  UNL1        0.0293
     35 H           4.4644    0.2072   -2.2748 H       1  UNL1        0.0293
@<TRIPOS>BOND
     1     1     2    1
     2     2     3   ar
     3     3     4   ar
     4     4     5   ar
     5     5     6    1
     6     6     7    2
     7     7     8    1
     8     8     9   am
     9     9    10    2
    10     9    11    1
    11    11    12    1
    12    12    13   ar
    13    13    14   ar
    14    14    15    1
    15    14    16   ar
    16    16    17    1
    17    16    18   ar
    18    18    19    1
    19     5    20   ar
    20    20     2   ar
    21    18    12   ar
    22     1    21    1
    23     1    22    1
    24     1    23    1
    25     3    24    1
    26     4    25    1
    27     6    26    1
    28     8    27    1
    29    11    28    1
    30    11    29    1
    31    15    30    1
    32    15    31    1
    33    15    32    1
    34    19    33    1
    35    19    34    1
    36    19    35    1
