@<TRIPOS>MOLECULE
*****
 40 41 0 0 0
SMALL
GASTEIGER

@<TRIPOS>ATOM
      1 C           4.6651   -0.7566   -1.6896 C.3     1  UNL1       -0.0397
      2 C           3.4131   -0.2960   -1.0059 C.ar    1  UNL1       -0.0504
      3 C           2.2622   -0.0127   -1.7431 C.ar    1  UNL1       -0.0585
      4 C           1.0794    0.3871   -1.1056 C.ar    1  UNL1       -0.0556
      5 C           1.0031    0.5078    0.2870 C.ar    1  UNL1       -0.0158
      6 C          -0.2488    0.9420    1.0627 C.3     1  UNL1        0.0960
      7 O           0.2085    1.9630    1.9866 O.3     1  UNL1       -0.3836
      8 C          -0.7926   -0.2090    1.9419 C.3     1  UNL1       -0.0041
      9 C          -1.6871   -1.2187    1.2007 C.3     1  UNL1        0.0102
     10 C          -0.8894   -2.2092    0.3430 C.3     1  UNL1       -0.0494
     11 N          -2.7773   -0.5175    0.5021 N.3     1  UNL1       -0.3022
     12 C          -3.7187   -1.4203   -0.1551 C.3     1  UNL1       -0.0125
     13 C          -2.3197    0.5341   -0.4109 C.3     1  UNL1        0.0044
     14 C          -1.4608    1.5750    0.3234 C.3     1  UNL1        0.0020
     15 C          -1.1370    2.7855   -0.5610 C.3     1  UNL1       -0.0583
     16 C           2.1738    0.1989    1.0144 C.ar    1  UNL1       -0.0556
     17 C           3.3559   -0.2000    0.3834 C.ar    1  UNL1       -0.0585
     18 H           4.6590   -1.8465   -1.7874 H       1  UNL1        0.0278
     19 H           4.7518   -0.3120   -2.6866 H       1  UNL1        0.0278
     20 H           5.5529   -0.4570   -1.1227 H       1  UNL1        0.0278
     21 H           2.2726   -0.1036   -2.8275 H       1  UNL1        0.0620
     22 H           0.2253    0.5774   -1.7438 H       1  UNL1        0.0621
     23 H           0.8697    2.5000    1.5163 H       1  UNL1        0.2106
     24 H           0.0156   -0.7360    2.4647 H       1  UNL1        0.0311
     25 H          -1.3893    0.2350    2.7539 H       1  UNL1        0.0311
     26 H          -2.1543   -1.8216    1.9924 H       1  UNL1        0.0461
     27 H          -0.0114   -2.5760    0.8853 H       1  UNL1        0.0245
     28 H          -1.4995   -3.0846    0.0940 H       1  UNL1        0.0245
     29 H          -0.5505   -1.7761   -0.5998 H       1  UNL1        0.0245
     30 H          -4.0789   -2.1833    0.5436 H       1  UNL1        0.0391
     31 H          -4.6022   -0.8675   -0.4938 H       1  UNL1        0.0391
     32 H          -3.2817   -1.9222   -1.0251 H       1  UNL1        0.0391
     33 H          -1.7949    0.1053   -1.2692 H       1  UNL1        0.0430
     34 H          -3.1980    1.0521   -0.8185 H       1  UNL1        0.0430
     35 H          -2.1059    1.9973    1.1123 H       1  UNL1        0.0342
     36 H          -0.5255    3.5186   -0.0261 H       1  UNL1        0.0234
     37 H          -0.6197    2.5182   -1.4837 H       1  UNL1        0.0234
     38 H          -2.0642    3.2913   -0.8547 H       1  UNL1        0.0234
     39 H           2.1706    0.2708    2.1023 H       1  UNL1        0.0621
     40 H           4.2286   -0.4329    0.9894 H       1  UNL1        0.0620
@<TRIPOS>BOND
     1     1     2    1
     2     2     3   ar
     3     3     4   ar
     4     4     5   ar
     5     5     6    1
     6     6     7    1
     7     6     8    1
     8     8     9    1
     9     9    10    1
    10     9    11    1
    11    11    12    1
    12    11    13    1
    13    13    14    1
    14    14    15    1
    15     5    16   ar
    16    16    17   ar
    17    17     2   ar
    18    14     6    1
    19     1    18    1
    20     1    19    1
    21     1    20    1
    22     3    21    1
    23     4    22    1
    24     7    23    1
    25     8    24    1
    26     8    25    1
    27     9    26    1
    28    10    27    1
    29    10    28    1
    30    10    29    1
    31    12    30    1
    32    12    31    1
    33    12    32    1
    34    13    33    1
    35    13    34    1
    36    14    35    1
    37    15    36    1
    38    15    37    1
    39    15    38    1
    40    16    39    1
    41    17    40    1
