@<TRIPOS>MOLECULE
*****
 39 44 0 0 0
SMALL
GASTEIGER

@<TRIPOS>ATOM
      1 SI         -4.4854   -3.0638    0.8600 Si      1  UNL1        0.0000
      2 C          -5.6487   -1.6098    0.6588 C.2     1  UNL1        0.0000
      3 C          -4.9804   -0.5261    0.2224 C.ar    1  UNL1        0.0000
      4 C          -5.5705    0.7702   -0.0434 C.ar    1  UNL1        0.0000
      5 C          -4.7766    1.7660   -0.4797 C.ar    1  UNL1        0.0000
      6 C          -3.3419    1.5803   -0.6917 C.ar    1  UNL1        0.0000
      7 C          -2.7142    0.4015   -0.4668 C.ar    1  UNL1        0.0000
      8 C          -1.2622    0.3351   -0.7135 C.ar    1  UNL1        0.0000
      9 C          -0.7867   -0.0140   -1.9835 C.ar    1  UNL1        0.0000
     10 C           0.5868   -0.0925   -2.2429 C.ar    1  UNL1        0.0000
     11 C           1.4854    0.1839   -1.2013 C.ar    1  UNL1        0.0000
     12 C           1.0051    0.5306    0.0710 C.ar    1  UNL1        0.0000
     13 C          -0.3689    0.6108    0.3360 C.ar    1  UNL1        0.0000
     14 N           2.0786    0.7515    0.9201 N.ar    1  UNL1        0.0000
     15 C           3.2328    0.5538    0.2149 C.ar    1  UNL1        0.0000
     16 C           4.6171    0.5604    0.2747 C.ar    1  UNL1        0.0000
     17 SI          6.0833    0.8390    1.3460 Si      1  UNL1        0.0000
     18 C           7.1871    0.4219   -0.1728 C.2     1  UNL1        0.0000
     19 C           6.4473    0.1323   -1.2661 C.2     1  UNL1        0.0000
     20 C           5.0503    0.2153   -0.9942 C.ar    1  UNL1        0.0000
     21 O           3.9877   -0.0029   -1.8303 O.2     1  UNL1        0.0000
     22 C           2.8851    0.2152   -1.0505 C.ar    1  UNL1        0.0000
     23 C          -3.5257   -0.7228    0.0088 C.ar    1  UNL1        0.0000
     24 C          -3.0858   -1.9672    0.2849 C.2     1  UNL1        0.0000
     25 H          -4.7841   -4.1589   -0.0943 H       1  UNL1        0.0000
     26 H          -4.3414   -3.4745    2.2780 H       1  UNL1        0.0000
     27 H          -6.7012   -1.6906    0.8764 H       1  UNL1        0.0000
     28 H          -6.6331    0.9182    0.1097 H       1  UNL1        0.0000
     29 H          -5.1880    2.7485   -0.6894 H       1  UNL1        0.0000
     30 H          -2.7921    2.4491   -1.0452 H       1  UNL1        0.0000
     31 H          -1.4892   -0.2321   -2.7854 H       1  UNL1        0.0000
     32 H           0.9503   -0.3636   -3.2294 H       1  UNL1        0.0000
     33 H          -0.7365    0.8750    1.3231 H       1  UNL1        0.0000
     34 H           2.0412    1.0142    1.8956 H       1  UNL1        0.0000
     35 H           6.2849    2.2462    1.7712 H       1  UNL1        0.0000
     36 H           6.2681   -0.1664    2.4215 H       1  UNL1        0.0000
     37 H           8.2619    0.4368   -0.0901 H       1  UNL1        0.0000
     38 H           6.8360   -0.1328   -2.2396 H       1  UNL1        0.0000
     39 H          -2.0762   -2.3375    0.2015 H       1  UNL1        0.0000
@<TRIPOS>BOND
     1     1     2    1
     2     2     3    2
     3     3     4   ar
     4     4     5   ar
     5     5     6   ar
     6     6     7   ar
     7     7     8    1
     8     8     9   ar
     9     9    10   ar
    10    10    11   ar
    11    11    12   ar
    12    12    13   ar
    13    12    14   ar
    14    14    15   ar
    15    15    16   ar
    16    16    17    1
    17    17    18    1
    18    18    19    2
    19    19    20    1
    20    20    21   ar
    21    21    22   ar
    22     7    23   ar
    23    23    24    2
    24    24     1    1
    25    23     3   ar
    26    13     8   ar
    27    22    15   ar
    28    22    11   ar
    29    20    16   ar
    30     1    25    1
    31     1    26    1
    32     2    27    1
    33     4    28    1
    34     5    29    1
    35     6    30    1
    36     9    31    1
    37    10    32    1
    38    13    33    1
    39    14    34    1
    40    17    35    1
    41    17    36    1
    42    18    37    1
    43    19    38    1
    44    24    39    1
