@<TRIPOS>MOLECULE
*****
 32 34 0 0 0
SMALL
GASTEIGER

@<TRIPOS>ATOM
      1 C           6.5482   -0.5919    1.4839 C.3     1  UNL1       -0.0334
      2 C           5.3899   -0.3405    0.5815 C.ar    1  UNL1       -0.0127
      3 C           5.3866   -0.1718   -0.7852 C.ar    1  UNL1       -0.0512
      4 C           4.0733    0.0495   -1.2952 C.ar    1  UNL1       -0.0462
      5 C           3.1003    0.0413   -0.3098 C.ar    1  UNL1        0.0262
      6 C           1.6780    0.2460   -0.4989 C.ar    1  UNL1        0.0265
      7 C           1.0701    0.8509   -1.5848 C.ar    1  UNL1       -0.0458
      8 C          -0.3513    0.8891   -1.4759 C.ar    1  UNL1       -0.0463
      9 C          -0.8095    0.3162   -0.3059 C.ar    1  UNL1        0.0199
     10 C          -2.1957    0.1542    0.1526 C.ar    1  UNL1       -0.0113
     11 C          -3.1832   -0.2814   -0.7422 C.ar    1  UNL1       -0.0533
     12 C          -4.5110   -0.4306   -0.3287 C.ar    1  UNL1       -0.0582
     13 C          -2.5724    0.4416    1.4719 C.ar    1  UNL1       -0.0533
     14 C          -3.9002    0.2936    1.8863 C.ar    1  UNL1       -0.0582
     15 C          -4.8819   -0.1323    0.9861 C.ar    1  UNL1       -0.0504
     16 C          -6.2983   -0.3250    1.4401 C.3     1  UNL1       -0.0397
     17 S           0.4963   -0.2753    0.6326 S.2     1  UNL1       -0.0877
     18 S           3.8137   -0.2298    1.2303 S.2     1  UNL1       -0.0930
     19 H           6.6436    0.2077    2.2258 H       1  UNL1        0.0283
     20 H           7.4838   -0.6351    0.9164 H       1  UNL1        0.0283
     21 H           6.4316   -1.5453    2.0096 H       1  UNL1        0.0283
     22 H           6.2809   -0.2058   -1.3958 H       1  UNL1        0.0626
     23 H           3.8600    0.1990   -2.3463 H       1  UNL1        0.0629
     24 H           1.6150    1.2617   -2.4256 H       1  UNL1        0.0629
     25 H          -1.0047    1.3288   -2.2199 H       1  UNL1        0.0629
     26 H          -2.9246   -0.5254   -1.7701 H       1  UNL1        0.0624
     27 H          -5.2524   -0.7836   -1.0421 H       1  UNL1        0.0620
     28 H          -1.8372    0.7916    2.1931 H       1  UNL1        0.0624
     29 H          -4.1604    0.5169    2.9187 H       1  UNL1        0.0620
     30 H          -6.5525    0.3814    2.2373 H       1  UNL1        0.0278
     31 H          -6.4362   -1.3445    1.8131 H       1  UNL1        0.0278
     32 H          -6.9994   -0.1511    0.6170 H       1  UNL1        0.0278
@<TRIPOS>BOND
     1     1     2    1
     2     2     3   ar
     3     3     4   ar
     4     4     5   ar
     5     5     6    1
     6     6     7   ar
     7     7     8   ar
     8     8     9   ar
     9     9    10    1
    10    10    11   ar
    11    11    12   ar
    12    10    13   ar
    13    13    14   ar
    14    14    15   ar
    15    15    16    1
    16     9    17   ar
    17     5    18   ar
    18    18     2   ar
    19    17     6   ar
    20    15    12   ar
    21     1    19    1
    22     1    20    1
    23     1    21    1
    24     3    22    1
    25     4    23    1
    26     7    24    1
    27     8    25    1
    28    11    26    1
    29    12    27    1
    30    13    28    1
    31    14    29    1
    32    16    30    1
    33    16    31    1
    34    16    32    1
