@<TRIPOS>MOLECULE
*****
 50 55 0 0 0
SMALL
GASTEIGER

@<TRIPOS>ATOM
      1 C           9.8881   -0.9224    0.4604 C.3     1  UNL1       -0.0334
      2 C           8.4974   -0.4022    0.3404 C.ar    1  UNL1       -0.0127
      3 C           8.0410    0.8810    0.5417 C.ar    1  UNL1       -0.0512
      4 C           6.6340    0.9900    0.3330 C.ar    1  UNL1       -0.0462
      5 C           6.0429   -0.2114   -0.0244 C.ar    1  UNL1        0.0262
      6 C           4.6462   -0.4707   -0.3153 C.ar    1  UNL1        0.0265
      7 C           4.0903   -1.5998   -0.8903 C.ar    1  UNL1       -0.0458
      8 C           2.6738   -1.5130   -1.0298 C.ar    1  UNL1       -0.0463
      9 C           2.1673   -0.3161   -0.5647 C.ar    1  UNL1        0.0199
     10 C           0.7698    0.1294   -0.5198 C.ar    1  UNL1       -0.0107
     11 C           0.3876    1.3822   -0.9659 C.ar    1  UNL1       -0.0529
     12 C          -0.9572    1.7553   -0.9231 C.ar    1  UNL1       -0.0528
     13 C          -0.2304   -0.7255   -0.0361 C.ar    1  UNL1       -0.0452
     14 C          -1.6143   -0.3811    0.0262 C.ar    1  UNL1       -0.0090
     15 C          -1.9909    0.9058   -0.4387 C.ar    1  UNL1       -0.0095
     16 C          -3.3687    1.3064   -0.4098 C.ar    1  UNL1       -0.0096
     17 C          -3.8058    2.5780   -0.8762 C.ar    1  UNL1       -0.0532
     18 C          -5.1396    2.9862   -0.8584 C.ar    1  UNL1       -0.0582
     19 C          -6.1071    2.1379   -0.3572 C.ar    1  UNL1       -0.0498
     20 C          -7.5527    2.5343   -0.3581 C.3     1  UNL1       -0.0397
     21 C          -5.7094    0.8743    0.0944 C.ar    1  UNL1       -0.0505
     22 C          -4.3567    0.4196    0.0919 C.ar    1  UNL1       -0.0093
     23 C          -3.9760   -0.8800    0.5688 C.ar    1  UNL1       -0.0096
     24 C          -4.9205   -1.8127    1.0879 C.ar    1  UNL1       -0.0534
     25 C          -4.5715   -3.0795    1.5531 C.ar    1  UNL1       -0.0611
     26 C          -3.2514   -3.4666    1.5182 C.ar    1  UNL1       -0.0611
     27 C          -2.2967   -2.5818    1.0196 C.ar    1  UNL1       -0.0534
     28 C          -2.6124   -1.2791    0.5346 C.ar    1  UNL1       -0.0096
     29 S           3.4191    0.6779    0.0475 S.2     1  UNL1       -0.0877
     30 S           7.2265   -1.4592   -0.0920 S.2     1  UNL1       -0.0930
     31 H           9.9619   -1.6369    1.2870 H       1  UNL1        0.0283
     32 H          10.5944   -0.1085    0.6558 H       1  UNL1        0.0283
     33 H          10.2013   -1.4231   -0.4620 H       1  UNL1        0.0283
     34 H           8.6804    1.7085    0.8257 H       1  UNL1        0.0626
     35 H           6.0896    1.9209    0.4390 H       1  UNL1        0.0629
     36 H           4.6668   -2.4609   -1.2073 H       1  UNL1        0.0629
     37 H           2.0595   -2.2945   -1.4618 H       1  UNL1        0.0629
     38 H           1.1181    2.0834   -1.3626 H       1  UNL1        0.0624
     39 H          -1.1743    2.7540   -1.2906 H       1  UNL1        0.0624
     40 H           0.1043   -1.6969    0.3164 H       1  UNL1        0.0630
     41 H          -3.1041    3.3009   -1.2800 H       1  UNL1        0.0624
     42 H          -5.4038    3.9690   -1.2400 H       1  UNL1        0.0620
     43 H          -8.0249    2.2248   -1.2969 H       1  UNL1        0.0278
     44 H          -8.0872    2.0720    0.4791 H       1  UNL1        0.0278
     45 H          -7.6597    3.6191   -0.2512 H       1  UNL1        0.0278
     46 H          -6.5042    0.2306    0.4591 H       1  UNL1        0.0626
     47 H          -5.9773   -1.5705    1.1461 H       1  UNL1        0.0624
     48 H          -5.3339   -3.7506    1.9388 H       1  UNL1        0.0618
     49 H          -2.9543   -4.4484    1.8758 H       1  UNL1        0.0618
     50 H          -1.2753   -2.9500    1.0238 H       1  UNL1        0.0624
@<TRIPOS>BOND
     1     1     2    1
     2     2     3   ar
     3     3     4   ar
     4     4     5   ar
     5     5     6    1
     6     6     7   ar
     7     7     8   ar
     8     8     9   ar
     9     9    10    1
    10    10    11   ar
    11    11    12   ar
    12    10    13   ar
    13    13    14   ar
    14    14    15   ar
    15    15    16   ar
    16    16    17   ar
    17    17    18   ar
    18    18    19   ar
    19    19    20    1
    20    19    21   ar
    21    16    22   ar
    22    22    23   ar
    23    23    24   ar
    24    24    25   ar
    25    25    26   ar
    26    26    27   ar
    27    27    28   ar
    28     9    29   ar
    29     5    30   ar
    30    30     2   ar
    31    29     6   ar
    32    15    12   ar
    33    28    14   ar
    34    22    21   ar
    35    28    23   ar
    36     1    31    1
    37     1    32    1
    38     1    33    1
    39     3    34    1
    40     4    35    1
    41     7    36    1
    42     8    37    1
    43    11    38    1
    44    12    39    1
    45    13    40    1
    46    17    41    1
    47    18    42    1
    48    20    43    1
    49    20    44    1
    50    20    45    1
    51    21    46    1
    52    24    47    1
    53    25    48    1
    54    26    49    1
    55    27    50    1
