@<TRIPOS>MOLECULE
*****
 43 47 0 0 0
SMALL
GASTEIGER

@<TRIPOS>ATOM
      1 C           9.2045    0.3882   -0.5587 C.3     1  UNL1       -0.0334
      2 C           7.7190    0.4842   -0.6205 C.ar    1  UNL1       -0.0127
      3 C           6.9458    1.4365   -1.2463 C.ar    1  UNL1       -0.0512
      4 C           5.5506    1.1895   -1.0811 C.ar    1  UNL1       -0.0462
      5 C           5.2834    0.0553   -0.3312 C.ar    1  UNL1        0.0262
      6 C           3.9912   -0.4937    0.0357 C.ar    1  UNL1        0.0265
      7 C           3.7248   -1.6170    0.7994 C.ar    1  UNL1       -0.0458
      8 C           2.3293   -1.8649    0.9604 C.ar    1  UNL1       -0.0463
      9 C           1.5468   -0.9222    0.3248 C.ar    1  UNL1        0.0199
     10 C           0.0814   -0.8479    0.2502 C.ar    1  UNL1       -0.0110
     11 C          -0.5986    0.3583    0.4837 C.ar    1  UNL1       -0.0495
     12 C          -1.9841    0.3663    0.4123 C.ar    1  UNL1       -0.0347
     13 C          -2.9233    1.5367    0.6223 C.3     1  UNL1       -0.0012
     14 C          -0.6619   -2.0154   -0.0410 C.ar    1  UNL1       -0.0529
     15 C          -2.0614   -1.9981   -0.1107 C.ar    1  UNL1       -0.0532
     16 C          -2.7165   -0.8020    0.1169 C.ar    1  UNL1       -0.0141
     17 C          -4.1275   -0.4784    0.1140 C.ar    1  UNL1       -0.0141
     18 C          -5.2375   -1.2689   -0.1249 C.ar    1  UNL1       -0.0535
     19 C          -6.5041   -0.6760   -0.0629 C.ar    1  UNL1       -0.0582
     20 C          -4.2783    0.8929    0.4096 C.ar    1  UNL1       -0.0351
     21 C          -5.5278    1.4892    0.4730 C.ar    1  UNL1       -0.0548
     22 C          -6.6589    0.6928    0.2455 C.ar    1  UNL1       -0.0501
     23 C          -8.0286    1.3074    0.2698 C.3     1  UNL1       -0.0397
     24 S           2.5204    0.2393   -0.4723 S.2     1  UNL1       -0.0877
     25 S           6.7559   -0.6914    0.1579 S.2     1  UNL1       -0.0930
     26 H           9.5517   -0.5624   -0.9772 H       1  UNL1        0.0283
     27 H           9.5547    0.4646    0.4757 H       1  UNL1        0.0283
     28 H           9.6731    1.1962   -1.1309 H       1  UNL1        0.0283
     29 H           7.3546    2.2742   -1.7990 H       1  UNL1        0.0626
     30 H           4.7832    1.8286   -1.5014 H       1  UNL1        0.0629
     31 H           4.4917   -2.2472    1.2332 H       1  UNL1        0.0629
     32 H           1.9232   -2.6940    1.5275 H       1  UNL1        0.0629
     33 H          -0.0618    1.2702    0.7257 H       1  UNL1        0.0627
     34 H          -2.8353    1.9253    1.6409 H       1  UNL1        0.0362
     35 H          -2.7433    2.3157   -0.1241 H       1  UNL1        0.0362
     36 H          -0.1448   -2.9545   -0.2293 H       1  UNL1        0.0624
     37 H          -2.6086   -2.9060   -0.3405 H       1  UNL1        0.0624
     38 H          -5.1390   -2.3232   -0.3590 H       1  UNL1        0.0624
     39 H          -7.3815   -1.2898   -0.2578 H       1  UNL1        0.0620
     40 H          -5.6235    2.5479    0.6932 H       1  UNL1        0.0623
     41 H          -8.7839    0.5692    0.5590 H       1  UNL1        0.0278
     42 H          -8.2791    1.7012   -0.7201 H       1  UNL1        0.0278
     43 H          -8.0762    2.1233    0.9989 H       1  UNL1        0.0278
@<TRIPOS>BOND
     1     1     2    1
     2     2     3   ar
     3     3     4   ar
     4     4     5   ar
     5     5     6    1
     6     6     7   ar
     7     7     8   ar
     8     8     9   ar
     9     9    10    1
    10    10    11   ar
    11    11    12   ar
    12    12    13    1
    13    10    14   ar
    14    14    15   ar
    15    15    16   ar
    16    16    17    1
    17    17    18   ar
    18    18    19   ar
    19    17    20   ar
    20    20    21   ar
    21    21    22   ar
    22    22    23    1
    23     9    24   ar
    24     5    25   ar
    25    25     2   ar
    26    24     6   ar
    27    16    12   ar
    28    20    13    1
    29    22    19   ar
    30     1    26    1
    31     1    27    1
    32     1    28    1
    33     3    29    1
    34     4    30    1
    35     7    31    1
    36     8    32    1
    37    11    33    1
    38    13    34    1
    39    13    35    1
    40    14    36    1
    41    15    37    1
    42    18    38    1
    43    19    39    1
    44    21    40    1
    45    23    41    1
    46    23    42    1
    47    23    43    1
