@<TRIPOS>MOLECULE
*****
 42 46 0 0 0
SMALL
GASTEIGER

@<TRIPOS>ATOM
      1 C          -9.1973   -0.5330    0.4904 C.3     1  UNL1       -0.0334
      2 C          -7.7494   -0.7020    0.1836 C.ar    1  UNL1       -0.0127
      3 C          -7.1187   -1.7683   -0.4179 C.ar    1  UNL1       -0.0512
      4 C          -5.7127   -1.5612   -0.5402 C.ar    1  UNL1       -0.0462
      5 C          -5.2956   -0.3416   -0.0322 C.ar    1  UNL1        0.0262
      6 C          -3.9492    0.1973    0.0136 C.ar    1  UNL1        0.0265
      7 C          -3.5461    1.4578    0.4197 C.ar    1  UNL1       -0.0458
      8 C          -2.1343    1.6449    0.3396 C.ar    1  UNL1       -0.0463
      9 C          -1.4783    0.5277   -0.1361 C.ar    1  UNL1        0.0200
     10 C          -0.0368    0.3293   -0.3375 C.ar    1  UNL1       -0.0093
     11 C           0.8582    0.6925    0.6845 C.ar    1  UNL1       -0.0296
     12 C           2.2306    0.5047    0.4667 C.ar    1  UNL1        0.0481
     13 N           3.3027    0.7635    1.2876 N.ar    1  UNL1       -0.3541
     14 C           0.4617   -0.1959   -1.5369 C.ar    1  UNL1       -0.0528
     15 C           1.8379   -0.3760   -1.7388 C.ar    1  UNL1       -0.0514
     16 C           2.7414   -0.0198   -0.7185 C.ar    1  UNL1        0.0074
     17 C           4.1661   -0.0666   -0.5880 C.ar    1  UNL1        0.0074
     18 C           5.2143   -0.4915   -1.4282 C.ar    1  UNL1       -0.0518
     19 C           6.5387   -0.3973   -0.9813 C.ar    1  UNL1       -0.0581
     20 C           4.4870    0.4322    0.6726 C.ar    1  UNL1        0.0477
     21 C           5.8051    0.5337    1.1368 C.ar    1  UNL1       -0.0349
     22 C           6.8394    0.1222    0.2819 C.ar    1  UNL1       -0.0485
     23 C           8.2651    0.1841    0.7511 C.3     1  UNL1       -0.0396
     24 S          -2.5858   -0.7360   -0.4651 S.2     1  UNL1       -0.0877
     25 S          -6.6423    0.5337    0.5880 S.2     1  UNL1       -0.0930
     26 H          -9.6138    0.3179   -0.0597 H       1  UNL1        0.0283
     27 H          -9.7635   -1.4257    0.2046 H       1  UNL1        0.0283
     28 H          -9.3527   -0.3676    1.5620 H       1  UNL1        0.0283
     29 H          -7.6349   -2.6592   -0.7562 H       1  UNL1        0.0626
     30 H          -5.0447   -2.2878   -0.9873 H       1  UNL1        0.0629
     31 H          -4.2270    2.2267    0.7640 H       1  UNL1        0.0629
     32 H          -1.6282    2.5638    0.6109 H       1  UNL1        0.0629
     33 H           0.4977    1.0959    1.6257 H       1  UNL1        0.0644
     34 H           3.2315    1.1487    2.2176 H       1  UNL1        0.1659
     35 H          -0.2173   -0.4657   -2.3429 H       1  UNL1        0.0624
     36 H           2.2011   -0.7846   -2.6768 H       1  UNL1        0.0624
     37 H           4.9999   -0.8917   -2.4147 H       1  UNL1        0.0624
     38 H           7.3378   -0.7354   -1.6376 H       1  UNL1        0.0620
     39 H           6.0199    0.9206    2.1286 H       1  UNL1        0.0641
     40 H           8.5245   -0.7381    1.2823 H       1  UNL1        0.0278
     41 H           8.9505    0.3113   -0.0944 H       1  UNL1        0.0278
     42 H           8.4173    1.0363    1.4230 H       1  UNL1        0.0278
@<TRIPOS>BOND
     1     1     2    1
     2     2     3   ar
     3     3     4   ar
     4     4     5   ar
     5     5     6    1
     6     6     7   ar
     7     7     8   ar
     8     8     9   ar
     9     9    10    1
    10    10    11   ar
    11    11    12   ar
    12    12    13   ar
    13    10    14   ar
    14    14    15   ar
    15    15    16   ar
    16    16    17   ar
    17    17    18   ar
    18    18    19   ar
    19    17    20   ar
    20    20    21   ar
    21    21    22   ar
    22    22    23    1
    23     9    24   ar
    24     5    25   ar
    25    25     2   ar
    26    24     6   ar
    27    16    12   ar
    28    20    13   ar
    29    22    19   ar
    30     1    26    1
    31     1    27    1
    32     1    28    1
    33     3    29    1
    34     4    30    1
    35     7    31    1
    36     8    32    1
    37    11    33    1
    38    13    34    1
    39    14    35    1
    40    15    36    1
    41    18    37    1
    42    19    38    1
    43    21    39    1
    44    23    40    1
    45    23    41    1
    46    23    42    1
