@<TRIPOS>MOLECULE
*****
 43 47 0 0 0
SMALL
GASTEIGER

@<TRIPOS>ATOM
      1 C           9.3377    0.6430   -0.1843 C.3     1  UNL1       -0.0334
      2 C           7.8869    0.6796    0.1529 C.ar    1  UNL1       -0.0127
      3 C           7.2622    1.3416    1.1867 C.ar    1  UNL1       -0.0512
      4 C           5.8505    1.1372    1.1804 C.ar    1  UNL1       -0.0462
      5 C           5.4228    0.3230    0.1437 C.ar    1  UNL1        0.0262
      6 C           4.0687   -0.0946   -0.1690 C.ar    1  UNL1        0.0265
      7 C           3.6437   -0.9203   -1.1955 C.ar    1  UNL1       -0.0458
      8 C           2.2307   -1.1165   -1.2064 C.ar    1  UNL1       -0.0463
      9 C           1.5948   -0.4454   -0.1817 C.ar    1  UNL1        0.0200
     10 C           0.1591   -0.3883    0.1234 C.ar    1  UNL1       -0.0094
     11 C          -0.7619   -0.1935   -0.9118 C.ar    1  UNL1       -0.0276
     12 C          -2.1039   -0.1587   -0.5749 C.ar    1  UNL1        0.1019
     13 S          -3.4377    0.0741   -1.6982 S.O2    1  UNL1        0.0262
     14 O          -3.5368   -1.0987   -2.5395 O.2     1  UNL1       -0.1643
     15 O          -3.3873    1.4308   -2.1974 O.2     1  UNL1       -0.1643
     16 C          -0.3180   -0.5478    1.4466 C.ar    1  UNL1       -0.0528
     17 C          -1.6896   -0.5072    1.7533 C.ar    1  UNL1       -0.0515
     18 C          -2.6034   -0.3090    0.7303 C.ar    1  UNL1        0.0092
     19 C          -4.0643   -0.2317    0.8030 C.ar    1  UNL1        0.0092
     20 C          -4.8875   -0.3408    1.9140 C.ar    1  UNL1       -0.0519
     21 C          -6.2781   -0.2349    1.7478 C.ar    1  UNL1       -0.0582
     22 C          -4.6719   -0.0221   -0.4481 C.ar    1  UNL1        0.1016
     23 C          -6.0364    0.0870   -0.6476 C.ar    1  UNL1       -0.0329
     24 C          -6.8575   -0.0098    0.4796 C.ar    1  UNL1       -0.0486
     25 C          -8.3499    0.0671    0.3342 C.3     1  UNL1       -0.0397
     26 S           2.7230    0.4268    0.7662 S.2     1  UNL1       -0.0877
     27 S           6.7671   -0.1795   -0.8083 S.2     1  UNL1       -0.0930
     28 H           9.5150    1.0573   -1.1824 H       1  UNL1        0.0283
     29 H           9.9207    1.2328    0.5311 H       1  UNL1        0.0283
     30 H           9.7174   -0.3839   -0.1585 H       1  UNL1        0.0283
     31 H           7.7867    1.9472    1.9167 H       1  UNL1        0.0626
     32 H           5.1863    1.5779    1.9146 H       1  UNL1        0.0629
     33 H           4.3095   -1.3732   -1.9201 H       1  UNL1        0.0629
     34 H           1.7126   -1.7320   -1.9323 H       1  UNL1        0.0629
     35 H          -0.4493   -0.0615   -1.9431 H       1  UNL1        0.0643
     36 H           0.3860   -0.7185    2.2605 H       1  UNL1        0.0624
     37 H          -2.0097   -0.6347    2.7832 H       1  UNL1        0.0624
     38 H          -4.4802   -0.5083    2.9068 H       1  UNL1        0.0624
     39 H          -6.9188   -0.3284    2.6241 H       1  UNL1        0.0620
     40 H          -6.4431    0.2430   -1.6421 H       1  UNL1        0.0639
     41 H          -8.8140    0.4435    1.2524 H       1  UNL1        0.0278
     42 H          -8.6265    0.7529   -0.4743 H       1  UNL1        0.0278
     43 H          -8.7557   -0.9254    0.1136 H       1  UNL1        0.0278
@<TRIPOS>BOND
     1     1     2    1
     2     2     3   ar
     3     3     4   ar
     4     4     5   ar
     5     5     6    1
     6     6     7   ar
     7     7     8   ar
     8     8     9   ar
     9     9    10    1
    10    10    11   ar
    11    11    12   ar
    12    12    13    1
    13    13    14    2
    14    13    15    2
    15    10    16   ar
    16    16    17   ar
    17    17    18   ar
    18    18    19    1
    19    19    20   ar
    20    20    21   ar
    21    19    22   ar
    22    22    23   ar
    23    23    24   ar
    24    24    25    1
    25     9    26   ar
    26     5    27   ar
    27    27     2   ar
    28    26     6   ar
    29    18    12   ar
    30    22    13    1
    31    24    21   ar
    32     1    28    1
    33     1    29    1
    34     1    30    1
    35     3    31    1
    36     4    32    1
    37     7    33    1
    38     8    34    1
    39    11    35    1
    40    16    36    1
    41    17    37    1
    42    20    38    1
    43    21    39    1
    44    23    40    1
    45    25    41    1
    46    25    42    1
    47    25    43    1
