@<TRIPOS>MOLECULE
*****
 41 45 0 0 0
SMALL
GASTEIGER

@<TRIPOS>ATOM
      1 C          -8.4837    2.2393    0.2084 C.3     1  UNL1       -0.0334
      2 C          -7.4537    1.1644    0.2615 C.ar    1  UNL1       -0.0127
      3 C          -7.6125   -0.1613    0.5987 C.ar    1  UNL1       -0.0512
      4 C          -6.3839   -0.8825    0.5328 C.ar    1  UNL1       -0.0462
      5 C          -5.3118   -0.0934    0.1515 C.ar    1  UNL1        0.0262
      6 C          -3.9390   -0.5255   -0.0187 C.ar    1  UNL1        0.0265
      7 C          -3.5024   -1.8238   -0.2144 C.ar    1  UNL1       -0.0458
      8 C          -2.0847   -1.9211   -0.3359 C.ar    1  UNL1       -0.0463
      9 C          -1.4585   -0.6945   -0.2354 C.ar    1  UNL1        0.0200
     10 C          -0.0217   -0.3918   -0.2935 C.ar    1  UNL1       -0.0102
     11 C           0.8853   -1.1966    0.4128 C.ar    1  UNL1       -0.0392
     12 C           2.2675   -0.9177    0.3512 C.ar    1  UNL1        0.0211
     13 S           3.5220   -1.7767    1.1453 S.2     1  UNL1       -0.0882
     14 C           0.4689    0.6693   -1.0546 C.ar    1  UNL1       -0.0529
     15 C           1.8418    0.9414   -1.1131 C.ar    1  UNL1       -0.0523
     16 C           2.7712    0.1417   -0.4015 C.ar    1  UNL1       -0.0031
     17 C           4.2172    0.2310   -0.3122 C.ar    1  UNL1       -0.0031
     18 C           5.1219    1.1476   -0.9071 C.ar    1  UNL1       -0.0527
     19 C           6.4990    1.0459   -0.6809 C.ar    1  UNL1       -0.0582
     20 C           4.7504   -0.7653    0.5047 C.ar    1  UNL1        0.0207
     21 C           6.1377   -0.8728    0.7372 C.ar    1  UNL1       -0.0445
     22 C           7.0134    0.0348    0.1259 C.ar    1  UNL1       -0.0494
     23 C           8.4884   -0.0487    0.3911 C.3     1  UNL1       -0.0397
     24 S          -2.6037    0.5532    0.0243 S.2     1  UNL1       -0.0877
     25 S          -5.8297    1.5213   -0.1294 S.2     1  UNL1       -0.0930
     26 H          -9.4693    1.8505    0.4851 H       1  UNL1        0.0283
     27 H          -8.2366    3.0491    0.9028 H       1  UNL1        0.0283
     28 H          -8.5597    2.6552   -0.8017 H       1  UNL1        0.0283
     29 H          -8.5626   -0.5986    0.8814 H       1  UNL1        0.0626
     30 H          -6.2987   -1.9364    0.7668 H       1  UNL1        0.0629
     31 H          -4.1664   -2.6769   -0.2783 H       1  UNL1        0.0629
     32 H          -1.5534   -2.8509   -0.5006 H       1  UNL1        0.0629
     33 H           0.5326   -2.0267    1.0198 H       1  UNL1        0.0635
     34 H          -0.2088    1.3007   -1.6260 H       1  UNL1        0.0624
     35 H           2.1917    1.7762   -1.7153 H       1  UNL1        0.0624
     36 H           4.7462    1.9433   -1.5454 H       1  UNL1        0.0624
     37 H           7.1645    1.7700   -1.1467 H       1  UNL1        0.0620
     38 H           6.5193   -1.6575    1.3858 H       1  UNL1        0.0631
     39 H           9.0613    0.3223   -0.4653 H       1  UNL1        0.0278
     40 H           8.7441    0.5470    1.2728 H       1  UNL1        0.0278
     41 H           8.7964   -1.0856    0.5622 H       1  UNL1        0.0278
@<TRIPOS>BOND
     1     1     2    1
     2     2     3   ar
     3     3     4   ar
     4     4     5   ar
     5     5     6    1
     6     6     7   ar
     7     7     8   ar
     8     8     9   ar
     9     9    10    1
    10    10    11   ar
    11    11    12   ar
    12    12    13   ar
    13    10    14   ar
    14    14    15   ar
    15    15    16   ar
    16    16    17   ar
    17    17    18   ar
    18    18    19   ar
    19    17    20   ar
    20    20    21   ar
    21    21    22   ar
    22    22    23    1
    23     9    24   ar
    24     5    25   ar
    25    25     2   ar
    26    24     6   ar
    27    16    12   ar
    28    20    13   ar
    29    22    19   ar
    30     1    26    1
    31     1    27    1
    32     1    28    1
    33     3    29    1
    34     4    30    1
    35     7    31    1
    36     8    32    1
    37    11    33    1
    38    14    34    1
    39    15    35    1
    40    18    36    1
    41    19    37    1
    42    21    38    1
    43    23    39    1
    44    23    40    1
    45    23    41    1
