@<TRIPOS>MOLECULE
*****
 42 44 0 0 0
SMALL
GASTEIGER

@<TRIPOS>ATOM
      1 C          -5.9151    1.1592   -0.0133 C.3     1  UNL1       -0.0397
      2 C          -4.5334    0.5752   -0.0193 C.ar    1  UNL1       -0.0504
      3 C          -3.7976    0.5080   -1.2082 C.ar    1  UNL1       -0.0582
      4 C          -2.5244   -0.0672   -1.2206 C.ar    1  UNL1       -0.0524
      5 C          -1.9703   -0.5836   -0.0454 C.ar    1  UNL1       -0.0015
      6 C          -0.6399   -1.1847   -0.0683 C.ar    1  UNL1        0.0496
      7 C          -0.2729   -2.4056   -0.6017 C.ar    1  UNL1       -0.0360
      8 C           1.1123   -2.5729   -0.4026 C.ar    1  UNL1       -0.0403
      9 C           1.5931   -1.4453    0.2376 C.ar    1  UNL1        0.0203
     10 C           2.9886   -1.1063    0.6886 C.3     1  UNL1       -0.0022
     11 C           4.0577   -2.0479    0.1417 C.3     1  UNL1        0.0501
     12 C           5.4235   -1.6370    0.6126 C.2     1  UNL1        0.3051
     13 O           5.7013   -0.7805    1.4342 O.2     1  UNL1       -0.2510
     14 O           6.3978   -2.3599    0.0243 O.3     1  UNL1       -0.4806
     15 N           0.5124   -0.5918    0.4282 N.ar    1  UNL1       -0.3365
     16 C           0.5701    0.7126    1.0928 C.3     1  UNL1        0.0814
     17 C           0.7067    1.8214    0.1156 C.ar    1  UNL1        0.1244
     18 C          -0.2007    2.6508   -0.5128 C.ar    1  UNL1       -0.0189
     19 C           0.5541    3.5307   -1.3246 C.ar    1  UNL1       -0.0236
     20 C           1.8724    3.1935   -1.1314 C.ar    1  UNL1        0.0922
     21 O           1.9761    2.1646   -0.2527 O.2     1  UNL1       -0.4660
     22 C          -2.7156   -0.5451    1.1367 C.ar    1  UNL1       -0.0524
     23 C          -3.9889    0.0302    1.1497 C.ar    1  UNL1       -0.0582
     24 H          -6.0065    1.9530   -0.7621 H       1  UNL1        0.0278
     25 H          -6.6517    0.3799   -0.2315 H       1  UNL1        0.0278
     26 H          -6.1469    1.6034    0.9604 H       1  UNL1        0.0278
     27 H          -4.2110    0.9001   -2.1347 H       1  UNL1        0.0620
     28 H          -1.9628   -0.1076   -2.1514 H       1  UNL1        0.0624
     29 H          -0.9461   -3.1072   -1.0778 H       1  UNL1        0.0639
     30 H           1.6959   -3.4339   -0.7021 H       1  UNL1        0.0635
     31 H           3.2336   -0.0836    0.3794 H       1  UNL1        0.0333
     32 H           3.0134   -1.1234    1.7858 H       1  UNL1        0.0333
     33 H           4.0500   -2.0281   -0.9542 H       1  UNL1        0.0381
     34 H           3.8787   -3.0743    0.4812 H       1  UNL1        0.0381
     35 H           7.2248   -2.0058    0.4132 H       1  UNL1        0.2951
     36 H          -0.3342    0.8299    1.6969 H       1  UNL1        0.0572
     37 H           1.4084    0.7040    1.7965 H       1  UNL1        0.0572
     38 H          -1.2759    2.6194   -0.3995 H       1  UNL1        0.0652
     39 H           0.1842    4.3155   -1.9689 H       1  UNL1        0.0649
     40 H           2.8076    3.5700   -1.5217 H       1  UNL1        0.1029
     41 H          -2.3128   -0.9733    2.0514 H       1  UNL1        0.0624
     42 H          -4.5557    0.0435    2.0779 H       1  UNL1        0.0620
@<TRIPOS>BOND
     1     1     2    1
     2     2     3   ar
     3     3     4   ar
     4     4     5   ar
     5     5     6    1
     6     6     7   ar
     7     7     8   ar
     8     8     9   ar
     9     9    10    1
    10    10    11    1
    11    11    12    1
    12    12    13    2
    13    12    14    1
    14     9    15   ar
    15    15    16    1
    16    16    17    1
    17    17    18   ar
    18    18    19   ar
    19    19    20   ar
    20    20    21   ar
    21     5    22   ar
    22    22    23   ar
    23    23     2   ar
    24    15     6   ar
    25    21    17   ar
    26     1    24    1
    27     1    25    1
    28     1    26    1
    29     3    27    1
    30     4    28    1
    31     7    29    1
    32     8    30    1
    33    10    31    1
    34    10    32    1
    35    11    33    1
    36    11    34    1
    37    14    35    1
    38    16    36    1
    39    16    37    1
    40    18    38    1
    41    19    39    1
    42    20    40    1
    43    22    41    1
    44    23    42    1
