@<TRIPOS>MOLECULE
*****
 30 31 0 0 0
SMALL
GASTEIGER

@<TRIPOS>ATOM
      1 C           4.9907   -0.5316   -1.4041 C.3     1  UNL1       -0.0397
      2 C           3.7712   -0.2903   -0.5650 C.ar    1  UNL1       -0.0504
      3 C           3.1013   -1.3614    0.0365 C.ar    1  UNL1       -0.0585
      4 C           1.9480   -1.1407    0.7930 C.ar    1  UNL1       -0.0568
      5 C           1.4428    0.1553    0.9593 C.ar    1  UNL1       -0.0303
      6 C           0.1849    0.3871    1.7501 C.3     1  UNL1        0.0372
      7 N          -0.9814    0.2168    0.9239 N.am    1  UNL1       -0.3059
      8 C          -2.2563    0.2948    1.4348 C.2     1  UNL1        0.2642
      9 O          -2.5094    0.4559    2.6228 O.2     1  UNL1       -0.2685
     10 C          -3.3389    0.1732    0.4192 C.ar    1  UNL1        0.1433
     11 C          -4.6682    0.2153    0.8115 C.ar    1  UNL1        0.0580
     12 N          -5.6884    0.1100   -0.0792 N.ar    1  UNL1       -0.2595
     13 C          -5.3148   -0.0382   -1.3717 C.ar    1  UNL1        0.0457
     14 C          -3.9847   -0.0793   -1.7638 C.ar    1  UNL1        0.0465
     15 N          -2.9607    0.0253   -0.8851 N.ar    1  UNL1       -0.2473
     16 C           2.0995    1.2230    0.3343 C.ar    1  UNL1       -0.0568
     17 C           3.2530    1.0016   -0.4220 C.ar    1  UNL1       -0.0585
     18 H           5.5532   -1.3961   -1.0362 H       1  UNL1        0.0278
     19 H           4.6998   -0.7145   -2.4431 H       1  UNL1        0.0278
     20 H           5.6643    0.3313   -1.3715 H       1  UNL1        0.0278
     21 H           3.4728   -2.3769   -0.0808 H       1  UNL1        0.0620
     22 H           1.4407   -1.9879    1.2502 H       1  UNL1        0.0621
     23 H           0.1249   -0.3051    2.5984 H       1  UNL1        0.0512
     24 H           0.1671    1.4004    2.1687 H       1  UNL1        0.0512
     25 H          -0.8858    0.1385   -0.0854 H       1  UNL1        0.1494
     26 H          -4.9548    0.3345    1.8511 H       1  UNL1        0.0853
     27 H          -6.1211   -0.1238   -2.0920 H       1  UNL1        0.0845
     28 H          -3.7084   -0.1988   -2.8057 H       1  UNL1        0.0845
     29 H           1.7139    2.2358    0.4306 H       1  UNL1        0.0621
     30 H           3.7446    1.8459   -0.9001 H       1  UNL1        0.0620
@<TRIPOS>BOND
     1     1     2    1
     2     2     3   ar
     3     3     4   ar
     4     4     5   ar
     5     5     6    1
     6     6     7    1
     7     7     8   am
     8     8     9    2
     9     8    10    1
    10    10    11   ar
    11    11    12   ar
    12    12    13   ar
    13    13    14   ar
    14    14    15   ar
    15     5    16   ar
    16    16    17   ar
    17    17     2   ar
    18    15    10   ar
    19     1    18    1
    20     1    19    1
    21     1    20    1
    22     3    21    1
    23     4    22    1
    24     6    23    1
    25     6    24    1
    26     7    25    1
    27    11    26    1
    28    13    27    1
    29    14    28    1
    30    16    29    1
    31    17    30    1
