@<TRIPOS>MOLECULE
*****
 43 45 0 0 0
SMALL
GASTEIGER

@<TRIPOS>ATOM
      1 C           7.8713    1.6473    1.4912 C.3     1  UNL1       -0.0334
      2 C           6.6228    1.0137    0.9801 C.ar    1  UNL1       -0.0130
      3 C           6.4682    0.1914   -0.1162 C.ar    1  UNL1       -0.0515
      4 C           5.1194   -0.2331   -0.2845 C.ar    1  UNL1       -0.0498
      5 C           4.2809    0.2813    0.6855 C.ar    1  UNL1        0.0070
      6 C           2.8008    0.0597    0.8477 C.3     1  UNL1        0.0405
      7 N           2.0604    0.2222   -0.4038 N.pl3   1  UNL1       -0.3392
      8 C           0.6645    0.1679   -0.3993 C.ar    1  UNL1        0.0283
      9 C          -0.0265    0.6818   -1.4995 C.ar    1  UNL1       -0.0391
     10 C          -1.4207    0.5985   -1.5872 C.ar    1  UNL1       -0.0381
     11 C          -2.1895   -0.0230   -0.5917 C.ar    1  UNL1        0.0440
     12 N          -3.5694   -0.0018   -0.7802 N.pl3   1  UNL1       -0.3249
     13 C          -4.1597   -1.2148   -1.3832 C.3     1  UNL1        0.0357
     14 C          -5.4969   -1.5878   -0.7171 C.3     1  UNL1        0.0634
     15 O          -6.4359   -0.5036   -0.6647 O.3     1  UNL1       -0.3767
     16 C          -5.8394    0.7537   -0.3047 C.3     1  UNL1        0.0634
     17 C          -4.4018    0.6546    0.2356 C.3     1  UNL1        0.0357
     18 C          -1.4930   -0.5922    0.4881 C.ar    1  UNL1        0.0815
     19 C          -2.1734   -1.3766    1.5412 C.2     1  UNL1        0.3387
     20 O          -3.0591   -2.1975    1.4019 O.2     1  UNL1       -0.2451
     21 O          -1.6908   -1.0751    2.7636 O.3     1  UNL1       -0.4771
     22 C          -0.0852   -0.5017    0.5696 C.ar    1  UNL1       -0.0251
     23 S           5.1398    1.2615    1.7955 S.2     1  UNL1       -0.0968
     24 H           8.6331    1.6921    0.7058 H       1  UNL1        0.0283
     25 H           8.2780    1.0663    2.3249 H       1  UNL1        0.0283
     26 H           7.6905    2.6710    1.8342 H       1  UNL1        0.0283
     27 H           7.2844   -0.0970   -0.7681 H       1  UNL1        0.0626
     28 H           4.7739   -0.8842   -1.0796 H       1  UNL1        0.0626
     29 H           2.3980    0.7512    1.5986 H       1  UNL1        0.0516
     30 H           2.6665   -0.9614    1.2269 H       1  UNL1        0.0516
     31 H           2.4058    1.0180   -0.9360 H       1  UNL1        0.1464
     32 H           0.5156    1.1620   -2.3107 H       1  UNL1        0.0637
     33 H          -1.9206    1.0365   -2.4496 H       1  UNL1        0.0637
     34 H          -3.4795   -2.0737   -1.3379 H       1  UNL1        0.0486
     35 H          -4.3417   -0.9930   -2.4414 H       1  UNL1        0.0486
     36 H          -5.9702   -2.4046   -1.2721 H       1  UNL1        0.0575
     37 H          -5.3442   -1.9459    0.3061 H       1  UNL1        0.0575
     38 H          -6.4895    1.2264    0.4385 H       1  UNL1        0.0575
     39 H          -5.8584    1.3833   -1.2019 H       1  UNL1        0.0575
     40 H          -4.0242    1.6631    0.4419 H       1  UNL1        0.0486
     41 H          -4.4028    0.0926    1.1750 H       1  UNL1        0.0486
     42 H          -2.2128   -1.6436    3.3675 H       1  UNL1        0.2954
     43 H           0.4114   -0.9854    1.4055 H       1  UNL1        0.0645
@<TRIPOS>BOND
     1     1     2    1
     2     2     3   ar
     3     3     4   ar
     4     4     5   ar
     5     5     6    1
     6     6     7    1
     7     7     8    1
     8     8     9   ar
     9     9    10   ar
    10    10    11   ar
    11    11    12    1
    12    12    13    1
    13    13    14    1
    14    14    15    1
    15    15    16    1
    16    16    17    1
    17    11    18   ar
    18    18    19    1
    19    19    20    2
    20    19    21    1
    21    18    22   ar
    22     5    23   ar
    23    23     2   ar
    24    22     8   ar
    25    17    12    1
    26     1    24    1
    27     1    25    1
    28     1    26    1
    29     3    27    1
    30     4    28    1
    31     6    29    1
    32     6    30    1
    33     7    31    1
    34     9    32    1
    35    10    33    1
    36    13    34    1
    37    13    35    1
    38    14    36    1
    39    14    37    1
    40    16    38    1
    41    16    39    1
    42    17    40    1
    43    17    41    1
    44    21    42    1
    45    22    43    1
