@<TRIPOS>MOLECULE
*****
 31 31 0 0 0
SMALL
GASTEIGER

@<TRIPOS>ATOM
      1 C           4.9453    1.1458   -1.5153 C.3     1  UNL1       -0.0397
      2 C           3.6734    0.6919   -0.8624 C.ar    1  UNL1       -0.0504
      3 C           3.3028    1.1923    0.3904 C.ar    1  UNL1       -0.0585
      4 C           2.1041    0.7933    0.9854 C.ar    1  UNL1       -0.0570
      5 C           1.2505   -0.1081    0.3349 C.ar    1  UNL1       -0.0319
      6 C          -0.0517   -0.5202    0.9799 C.3     1  UNL1        0.0435
      7 N          -0.9919    0.5989    1.0047 N.3     1  UNL1       -0.1754
      8 S          -2.4856    0.3192    1.6735 S.O2    1  UNL1        0.0968
      9 O          -2.2943   -0.3467    2.9386 O.2     1  UNL1       -0.1411
     10 O          -3.2528    1.5346    1.5512 O.2     1  UNL1       -0.1411
     11 N          -3.1066   -0.7997    0.5617 N.3     1  UNL1       -0.1727
     12 C          -4.2253   -1.6013    1.1113 C.3     1  UNL1        0.0096
     13 C          -3.4483   -0.2479   -0.7678 C.3     1  UNL1        0.0096
     14 C           1.6129   -0.5916   -0.9288 C.ar    1  UNL1       -0.0570
     15 C           2.8129   -0.1923   -1.5229 C.ar    1  UNL1       -0.0585
     16 H           5.3518    0.3633   -2.1647 H       1  UNL1        0.0278
     17 H           4.7589    2.0420   -2.1149 H       1  UNL1        0.0278
     18 H           5.7097    1.3740   -0.7651 H       1  UNL1        0.0278
     19 H           3.9451    1.8979    0.9129 H       1  UNL1        0.0620
     20 H           1.8311    1.1948    1.9599 H       1  UNL1        0.0621
     21 H          -0.4790   -1.3594    0.4201 H       1  UNL1        0.0491
     22 H           0.1566   -0.8713    1.9968 H       1  UNL1        0.0491
     23 H          -1.0239    1.1699    0.1661 H       1  UNL1        0.1494
     24 H          -3.8943   -2.1763    1.9809 H       1  UNL1        0.0408
     25 H          -4.5709   -2.3239    0.3646 H       1  UNL1        0.0408
     26 H          -5.0676   -0.9606    1.3898 H       1  UNL1        0.0408
     27 H          -4.3251    0.4042   -0.7128 H       1  UNL1        0.0408
     28 H          -2.6073    0.3060   -1.1929 H       1  UNL1        0.0408
     29 H          -3.6686   -1.0683   -1.4590 H       1  UNL1        0.0408
     30 H           0.9646   -1.2831   -1.4623 H       1  UNL1        0.0621
     31 H           3.0735   -0.5775   -2.5063 H       1  UNL1        0.0620
@<TRIPOS>BOND
     1     1     2    1
     2     2     3   ar
     3     3     4   ar
     4     4     5   ar
     5     5     6    1
     6     6     7    1
     7     7     8    1
     8     8     9    2
     9     8    10    2
    10     8    11    1
    11    11    12    1
    12    11    13    1
    13     5    14   ar
    14    14    15   ar
    15    15     2   ar
    16     1    16    1
    17     1    17    1
    18     1    18    1
    19     3    19    1
    20     4    20    1
    21     6    21    1
    22     6    22    1
    23     7    23    1
    24    12    24    1
    25    12    25    1
    26    12    26    1
    27    13    27    1
    28    13    28    1
    29    13    29    1
    30    14    30    1
    31    15    31    1
