@<TRIPOS>MOLECULE
*****
 47 53 0 0 0
SMALL
GASTEIGER

@<TRIPOS>ATOM
      1 SI         -5.3376    2.4357    1.3840 Si      1  UNL1        0.0000
      2 C          -6.3633    1.0351    0.6816 C.2     1  UNL1        0.0000
      3 C          -5.5795    0.1501    0.0386 C.ar    1  UNL1        0.0000
      4 C          -6.0439   -1.0509   -0.6253 C.ar    1  UNL1        0.0000
      5 C          -5.1424   -1.8455   -1.2321 C.ar    1  UNL1        0.0000
      6 C          -3.7136   -1.5355   -1.2398 C.ar    1  UNL1        0.0000
      7 C          -3.1994   -0.4335   -0.6438 C.ar    1  UNL1        0.0000
      8 C          -1.7417   -0.2298   -0.7106 C.ar    1  UNL1        0.0000
      9 C          -1.1694    0.3890   -1.8214 C.ar    1  UNL1        0.0000
     10 C           0.2066    0.5836   -1.8687 C.ar    1  UNL1        0.0000
     11 C           1.0164    0.1583   -0.7945 C.ar    1  UNL1        0.0000
     12 C           2.4057    0.3632   -0.8571 C.ar    1  UNL1        0.0000
     13 O           3.0585    0.9540   -1.8984 O.2     1  UNL1        0.0000
     14 C           4.3782    0.9709   -1.5943 C.ar    1  UNL1        0.0000
     15 C           5.3679    1.4941   -2.4109 C.ar    1  UNL1        0.0000
     16 C           6.6378    1.3931   -1.8783 C.ar    1  UNL1        0.0000
     17 N           6.9280    0.8430   -0.6780 N.ar    1  UNL1        0.0000
     18 C           5.9242    0.3417    0.0900 C.ar    1  UNL1        0.0000
     19 C           4.5986    0.3914   -0.3519 C.ar    1  UNL1        0.0000
     20 C           3.3042   -0.0104    0.1384 C.ar    1  UNL1        0.0000
     21 C           2.7740   -0.6457    1.3036 C.ar    1  UNL1        0.0000
     22 C           3.6369   -1.0476    2.3493 C.ar    1  UNL1        0.0000
     23 C           3.1440   -1.6681    3.4945 C.ar    1  UNL1        0.0000
     24 C           1.7841   -1.8988    3.6179 C.ar    1  UNL1        0.0000
     25 C           0.9146   -1.5093    2.5956 C.ar    1  UNL1        0.0000
     26 C           1.3666   -0.8752    1.4119 C.ar    1  UNL1        0.0000
     27 C           0.4837   -0.4701    0.3541 C.ar    1  UNL1        0.0000
     28 C          -0.9243   -0.6475    0.3557 C.ar    1  UNL1        0.0000
     29 C          -4.1316    0.4728    0.0334 C.ar    1  UNL1        0.0000
     30 C          -3.8137    1.6143    0.6771 C.2     1  UNL1        0.0000
     31 H          -5.3416    2.4456    2.8670 H       1  UNL1        0.0000
     32 H          -5.6387    3.7344    0.7345 H       1  UNL1        0.0000
     33 H          -7.4334    0.9979    0.8058 H       1  UNL1        0.0000
     34 H          -7.1011   -1.2900   -0.6254 H       1  UNL1        0.0000
     35 H          -5.4585   -2.7521   -1.7389 H       1  UNL1        0.0000
     36 H          -3.0719   -2.2467   -1.7542 H       1  UNL1        0.0000
     37 H          -1.7913    0.7237   -2.6481 H       1  UNL1        0.0000
     38 H           0.6454    1.0672   -2.7388 H       1  UNL1        0.0000
     39 H           5.1588    1.9379   -3.3728 H       1  UNL1        0.0000
     40 H           7.4977    1.7692   -2.4273 H       1  UNL1        0.0000
     41 H           6.2378   -0.0811    1.0354 H       1  UNL1        0.0000
     42 H           4.7064   -0.8871    2.2954 H       1  UNL1        0.0000
     43 H           3.8234   -1.9698    4.2875 H       1  UNL1        0.0000
     44 H           1.3912   -2.3827    4.5086 H       1  UNL1        0.0000
     45 H          -0.1407   -1.7174    2.7509 H       1  UNL1        0.0000
     46 H          -1.4197   -1.1190    1.2008 H       1  UNL1        0.0000
     47 H          -2.8335    2.0472    0.7993 H       1  UNL1        0.0000
@<TRIPOS>BOND
     1     1     2    1
     2     2     3    2
     3     3     4   ar
     4     4     5   ar
     5     5     6   ar
     6     6     7   ar
     7     7     8    1
     8     8     9   ar
     9     9    10   ar
    10    10    11   ar
    11    11    12   ar
    12    12    13   ar
    13    13    14   ar
    14    14    15   ar
    15    15    16   ar
    16    16    17   ar
    17    17    18   ar
    18    18    19   ar
    19    19    20   ar
    20    20    21   ar
    21    21    22   ar
    22    22    23   ar
    23    23    24   ar
    24    24    25   ar
    25    25    26   ar
    26    26    27   ar
    27    27    28   ar
    28     7    29   ar
    29    29    30    2
    30    30     1    1
    31    29     3   ar
    32    28     8   ar
    33    27    11   ar
    34    20    12   ar
    35    26    21   ar
    36    19    14   ar
    37     1    31    1
    38     1    32    1
    39     2    33    1
    40     4    34    1
    41     5    35    1
    42     6    36    1
    43     9    37    1
    44    10    38    1
    45    15    39    1
    46    16    40    1
    47    18    41    1
    48    22    42    1
    49    23    43    1
    50    24    44    1
    51    25    45    1
    52    28    46    1
    53    30    47    1
