@<TRIPOS>MOLECULE
*****
 34 36 0 0 0
SMALL
GASTEIGER

@<TRIPOS>ATOM
      1 C          -5.7938    0.5437   -0.0846 C.3     1  UNL1       -0.0397
      2 C          -4.3073    0.3513   -0.1096 C.ar    1  UNL1       -0.0503
      3 C          -3.4804    1.0960    0.7333 C.ar    1  UNL1       -0.0568
      4 C          -2.0929    0.8979    0.7315 C.ar    1  UNL1       -0.0360
      5 C          -1.4885   -0.0538   -0.1010 C.ar    1  UNL1        0.0656
      6 N          -0.0899   -0.2843   -0.1150 N.ar    1  UNL1       -0.2364
      7 N           0.5147   -1.3138   -0.8081 N.ar    1  UNL1       -0.2950
      8 C           1.9058   -1.2162   -0.6577 C.ar    1  UNL1        0.0410
      9 C           2.7533   -2.2978   -1.2384 C.3     1  UNL1       -0.0223
     10 C           2.2622   -0.1118    0.0321 C.ar    1  UNL1        0.0426
     11 C           3.4634    0.5224    0.4798 C.ar    1  UNL1       -0.0329
     12 C           4.8114   -0.0414    0.1655 C.3     1  UNL1       -0.0388
     13 C           3.3205    1.6552    1.1851 C.ar    1  UNL1        0.0083
     14 C           1.9931    2.2493    1.5108 C.ar    1  UNL1        0.2724
     15 O           1.9722    3.2917    2.1572 O.2     1  UNL1       -0.2658
     16 N           0.8573    1.6073    1.0869 N.ar    1  UNL1       -0.1893
     17 C           0.9346    0.5134    0.4015 C.ar    1  UNL1        0.1656
     18 C          -2.3401   -0.8055   -0.9324 C.ar    1  UNL1       -0.0360
     19 C          -3.7270   -0.6117   -0.9359 C.ar    1  UNL1       -0.0568
     20 H          -6.2440   -0.1155    0.6640 H       1  UNL1        0.0278
     21 H          -6.0496    1.5807    0.1570 H       1  UNL1        0.0278
     22 H          -6.2333    0.3207   -1.0625 H       1  UNL1        0.0278
     23 H          -3.9036    1.8424    1.4024 H       1  UNL1        0.0621
     24 H          -1.5010    1.5035    1.4122 H       1  UNL1        0.0639
     25 H           0.1618   -2.2446   -0.5831 H       1  UNL1        0.1870
     26 H           2.4681   -3.2675   -0.8168 H       1  UNL1        0.0292
     27 H           2.6127   -2.3434   -2.3235 H       1  UNL1        0.0292
     28 H           3.8182   -2.1621   -1.0501 H       1  UNL1        0.0292
     29 H           4.9330   -1.0309    0.6180 H       1  UNL1        0.0278
     30 H           4.9584   -0.1189   -0.9167 H       1  UNL1        0.0278
     31 H           5.6177    0.5909    0.5544 H       1  UNL1        0.0278
     32 H           4.1671    2.2158    1.5649 H       1  UNL1        0.0675
     33 H          -1.9279   -1.5478   -1.6108 H       1  UNL1        0.0639
     34 H          -4.3460   -1.2152   -1.5958 H       1  UNL1        0.0621
@<TRIPOS>BOND
     1     1     2    1
     2     2     3   ar
     3     3     4   ar
     4     4     5   ar
     5     5     6    1
     6     6     7   ar
     7     7     8   ar
     8     8     9    1
     9     8    10   ar
    10    10    11   ar
    11    11    12    1
    12    11    13   ar
    13    13    14   ar
    14    14    15    2
    15    14    16   ar
    16    16    17   ar
    17     5    18   ar
    18    18    19   ar
    19    19     2   ar
    20    17     6   ar
    21    17    10    1
    22     1    20    1
    23     1    21    1
    24     1    22    1
    25     3    23    1
    26     4    24    1
    27     7    25    1
    28     9    26    1
    29     9    27    1
    30     9    28    1
    31    12    29    1
    32    12    30    1
    33    12    31    1
    34    13    32    1
    35    18    33    1
    36    19    34    1
