@<TRIPOS>MOLECULE
*****
 43 45 0 0 0
SMALL
GASTEIGER

@<TRIPOS>ATOM
      1 C           7.7210    1.2867    0.8014 C.3     1  UNL1       -0.0397
      2 C           6.3276    0.8031    0.5335 C.ar    1  UNL1       -0.0503
      3 C           5.2363    1.6619    0.6672 C.ar    1  UNL1       -0.0571
      4 C           3.9386    1.2139    0.3867 C.ar    1  UNL1       -0.0400
      5 C           3.6951   -0.0997   -0.0443 C.ar    1  UNL1        0.0363
      6 N           2.3712   -0.5379   -0.3286 N.am    1  UNL1       -0.2707
      7 C           1.2278    0.3430   -0.2494 C.3     1  UNL1        0.0314
      8 C           0.1184   -0.4043   -0.9700 C.3     1  UNL1        0.0615
      9 C          -1.2525   -0.0195   -0.4535 C.2     1  UNL1        0.2373
     10 O          -1.4165    0.8921    0.3513 O.2     1  UNL1       -0.2737
     11 N          -2.2691   -0.7793   -1.0294 N.am    1  UNL1       -0.2067
     12 N          -3.6100   -0.5329   -0.8643 N.2     1  UNL1       -0.1872
     13 C          -4.0304   -0.1569    0.3056 C.2     1  UNL1        0.0596
     14 C          -5.4263    0.1559    0.5366 C.ar    1  UNL1        0.0346
     15 S          -5.8872    0.5833    2.1325 S.2     1  UNL1       -0.0954
     16 C          -7.5169    0.7928    1.6811 C.ar    1  UNL1       -0.0235
     17 C          -7.7133    0.5451    0.3427 C.ar    1  UNL1       -0.0512
     18 C          -6.5051    0.1734   -0.3387 C.ar    1  UNL1       -0.0347
     19 C          -6.4509   -0.1437   -1.7983 C.3     1  UNL1       -0.0386
     20 C           0.4635   -1.8624   -0.7189 C.3     1  UNL1        0.0371
     21 C           1.9652   -1.8549   -0.5744 C.2     1  UNL1        0.2206
     22 O           2.6300   -2.8771   -0.6425 O.2     1  UNL1       -0.2752
     23 C           4.8011   -0.9452   -0.1888 C.ar    1  UNL1       -0.0400
     24 C           6.1005   -0.5006    0.0906 C.ar    1  UNL1       -0.0571
     25 H           8.3540    0.4709    1.1661 H       1  UNL1        0.0278
     26 H           7.7231    2.0671    1.5697 H       1  UNL1        0.0278
     27 H           8.1593    1.6923   -0.1156 H       1  UNL1        0.0278
     28 H           5.3831    2.6884    0.9961 H       1  UNL1        0.0621
     29 H           3.1305    1.9248    0.5294 H       1  UNL1        0.0636
     30 H           1.0083    0.5243    0.8093 H       1  UNL1        0.0476
     31 H           1.4249    1.2949   -0.7539 H       1  UNL1        0.0476
     32 H           0.1655   -0.1855   -2.0449 H       1  UNL1        0.0415
     33 H          -2.0653   -1.2537   -1.9056 H       1  UNL1        0.1772
     34 H          -3.3550   -0.0969    1.1770 H       1  UNL1        0.0857
     35 H          -8.2543    1.0881    2.4150 H       1  UNL1        0.0693
     36 H          -8.6834    0.6273   -0.1335 H       1  UNL1        0.0626
     37 H          -5.7674    0.5368   -2.3160 H       1  UNL1        0.0278
     38 H          -7.4375   -0.0389   -2.2619 H       1  UNL1        0.0278
     39 H          -6.1176   -1.1742   -1.9566 H       1  UNL1        0.0278
     40 H           0.1697   -2.4921   -1.5639 H       1  UNL1        0.0366
     41 H           0.0180   -2.2521    0.2025 H       1  UNL1        0.0366
     42 H           4.6945   -1.9688   -0.5343 H       1  UNL1        0.0636
     43 H           6.9318   -1.1896   -0.0434 H       1  UNL1        0.0621
@<TRIPOS>BOND
     1     1     2    1
     2     2     3   ar
     3     3     4   ar
     4     4     5   ar
     5     5     6    1
     6     6     7    1
     7     7     8    1
     8     8     9    1
     9     9    10    2
    10     9    11   am
    11    11    12    1
    12    12    13    2
    13    13    14    1
    14    14    15   ar
    15    15    16   ar
    16    16    17   ar
    17    17    18   ar
    18    18    19    1
    19     8    20    1
    20    20    21    1
    21    21    22    2
    22     5    23   ar
    23    23    24   ar
    24    24     2   ar
    25    21     6   am
    26    18    14   ar
    27     1    25    1
    28     1    26    1
    29     1    27    1
    30     3    28    1
    31     4    29    1
    32     7    30    1
    33     7    31    1
    34     8    32    1
    35    11    33    1
    36    13    34    1
    37    16    35    1
    38    17    36    1
    39    19    37    1
    40    19    38    1
    41    19    39    1
    42    20    40    1
    43    20    41    1
    44    23    42    1
    45    24    43    1
