@<TRIPOS>MOLECULE
*****
 42 44 0 0 0
SMALL
GASTEIGER

@<TRIPOS>ATOM
      1 C           7.3406   -0.1707   -0.6894 C.3     1  UNL1       -0.0370
      2 C           5.8527   -0.3133   -0.5964 C.ar    1  UNL1       -0.0151
      3 C           5.1936   -1.4125   -1.1510 C.ar    1  UNL1       -0.0544
      4 C           3.7996   -1.5102   -1.0729 C.ar    1  UNL1       -0.0401
      5 C           3.0399   -0.5097   -0.4496 C.ar    1  UNL1        0.0361
      6 N           1.6417   -0.6942   -0.4164 N.am    1  UNL1       -0.2851
      7 C           0.6878    0.1561    0.1258 C.2     1  UNL1        0.2218
      8 O           0.9101    1.2324    0.6680 O.2     1  UNL1       -0.2751
      9 C          -0.7262   -0.4050   -0.0124 C.3     1  UNL1        0.0516
     10 C          -0.9173   -1.6620    0.8605 C.3     1  UNL1       -0.0390
     11 C          -1.9601   -1.4584    1.9555 C.3     1  UNL1       -0.0364
     12 C          -3.2916   -0.9557    1.3915 C.3     1  UNL1        0.0149
     13 N          -3.0848    0.0638    0.3660 N.pl3   1  UNL1       -0.2989
     14 C          -4.1911    0.8566    0.0890 C.ar    1  UNL1        0.2177
     15 N          -5.4146    0.3845    0.3931 N.ar    1  UNL1       -0.2228
     16 C          -6.4789    1.1545    0.0974 C.ar    1  UNL1        0.0326
     17 C          -6.3821    2.3848   -0.4964 C.ar    1  UNL1       -0.0253
     18 C          -5.1042    2.7882   -0.7785 C.ar    1  UNL1        0.0326
     19 N          -4.0128    2.0502   -0.5019 N.ar    1  UNL1       -0.2228
     20 C          -1.7668    0.6871    0.2808 C.3     1  UNL1        0.0260
     21 C           3.6977    0.5924    0.0931 C.ar    1  UNL1       -0.0049
     22 C           5.0869    0.6827    0.0123 C.ar    1  UNL1        0.1280
     23 F           5.6955    1.7574    0.5355 F       1  UNL1       -0.2052
     24 H           7.8174   -1.1297   -0.9178 H       1  UNL1        0.0278
     25 H           7.6007    0.5418   -1.4783 H       1  UNL1        0.0278
     26 H           7.7548    0.1801    0.2616 H       1  UNL1        0.0278
     27 H           5.7567   -2.2003   -1.6465 H       1  UNL1        0.0622
     28 H           3.3190   -2.3816   -1.5114 H       1  UNL1        0.0636
     29 H           1.2972   -1.5413   -0.8516 H       1  UNL1        0.1548
     30 H          -0.8454   -0.7043   -1.0640 H       1  UNL1        0.0410
     31 H           0.0226   -1.9873    1.3212 H       1  UNL1        0.0273
     32 H          -1.2455   -2.4883    0.2165 H       1  UNL1        0.0273
     33 H          -2.1215   -2.3941    2.5028 H       1  UNL1        0.0281
     34 H          -1.5749   -0.7343    2.6850 H       1  UNL1        0.0281
     35 H          -3.8865   -0.5746    2.2319 H       1  UNL1        0.0464
     36 H          -3.8347   -1.8008    0.9505 H       1  UNL1        0.0464
     37 H          -7.4426    0.7315    0.3634 H       1  UNL1        0.0831
     38 H          -7.2466    2.9895   -0.7265 H       1  UNL1        0.0648
     39 H          -4.9059    3.7452   -1.2513 H       1  UNL1        0.0831
     40 H          -1.7018    1.4235   -0.5305 H       1  UNL1        0.0472
     41 H          -1.5508    1.2236    1.2139 H       1  UNL1        0.0472
     42 H           3.1722    1.4026    0.5849 H       1  UNL1        0.0665
@<TRIPOS>BOND
     1     1     2    1
     2     2     3   ar
     3     3     4   ar
     4     4     5   ar
     5     5     6    1
     6     6     7   am
     7     7     8    2
     8     7     9    1
     9     9    10    1
    10    10    11    1
    11    11    12    1
    12    12    13    1
    13    13    14    1
    14    14    15   ar
    15    15    16   ar
    16    16    17   ar
    17    17    18   ar
    18    18    19   ar
    19    13    20    1
    20     5    21   ar
    21    21    22   ar
    22    22    23    1
    23    22     2   ar
    24    20     9    1
    25    19    14   ar
    26     1    24    1
    27     1    25    1
    28     1    26    1
    29     3    27    1
    30     4    28    1
    31     6    29    1
    32     9    30    1
    33    10    31    1
    34    10    32    1
    35    11    33    1
    36    11    34    1
    37    12    35    1
    38    12    36    1
    39    16    37    1
    40    17    38    1
    41    18    39    1
    42    20    40    1
    43    20    41    1
    44    21    42    1
