@<TRIPOS>MOLECULE
*****
 37 37 0 0 0
SMALL
GASTEIGER

@<TRIPOS>ATOM
      1 C          -7.4476   -0.2828   -0.1422 C.3     1  UNL1       -0.0397
      2 C          -5.9543   -0.1692   -0.2174 C.ar    1  UNL1       -0.0503
      3 C          -5.3195    0.0762   -1.4376 C.ar    1  UNL1       -0.0571
      4 C          -3.9288    0.2125   -1.4970 C.ar    1  UNL1       -0.0402
      5 C          -3.1487    0.1170   -0.3381 C.ar    1  UNL1        0.0334
      6 N          -1.7543    0.2660   -0.4871 N.am    1  UNL1       -0.2855
      7 C          -0.7874    0.2123    0.5033 C.2     1  UNL1        0.2177
      8 O          -0.9710    0.0261    1.7002 O.2     1  UNL1       -0.2755
      9 C           0.6012    0.4222   -0.0695 C.3     1  UNL1        0.0343
     10 C           1.6776    0.3448    1.0066 C.3     1  UNL1        0.0532
     11 C           3.0452    0.5546    0.4143 C.2     1  UNL1        0.3077
     12 O           3.2718    0.8398   -0.7527 O.2     1  UNL1       -0.2508
     13 O           3.9955    0.3926    1.3761 O.3     1  UNL1       -0.4584
     14 C           5.3633    0.5143    0.9260 C.3     1  UNL1        0.1611
     15 C           5.9055   -0.8231    0.4335 C.3     1  UNL1        0.3407
     16 F           5.1273   -1.3240   -0.5631 F       1  UNL1       -0.1957
     17 F           5.8435   -1.7382    1.4434 F       1  UNL1       -0.1957
     18 C           7.3413   -0.7001   -0.0485 C.3     1  UNL1        0.3045
     19 F           7.4375    0.2018   -1.0607 F       1  UNL1       -0.2026
     20 F           8.1420   -0.2330    0.9471 F       1  UNL1       -0.2026
     21 C          -3.7850   -0.1132    0.8812 C.ar    1  UNL1       -0.0402
     22 C          -5.1771   -0.2500    0.9420 C.ar    1  UNL1       -0.0571
     23 H          -7.7481   -0.9484    0.6738 H       1  UNL1        0.0278
     24 H          -7.8901    0.7041    0.0248 H       1  UNL1        0.0278
     25 H          -7.8548   -0.7012   -1.0687 H       1  UNL1        0.0278
     26 H          -5.9024    0.1621   -2.3519 H       1  UNL1        0.0621
     27 H          -3.4695    0.3970   -2.4645 H       1  UNL1        0.0636
     28 H          -1.4282    0.4294   -1.4317 H       1  UNL1        0.1548
     29 H           0.7808   -0.3421   -0.8355 H       1  UNL1        0.0364
     30 H           0.6277    1.4037   -0.5587 H       1  UNL1        0.0364
     31 H           1.6544   -0.6399    1.4875 H       1  UNL1        0.0382
     32 H           1.5089    1.1143    1.7683 H       1  UNL1        0.0382
     33 H           5.4444    1.2935    0.1594 H       1  UNL1        0.0760
     34 H           5.9374    0.8511    1.7957 H       1  UNL1        0.0760
     35 H           7.7375   -1.6583   -0.3947 H       1  UNL1        0.1082
     36 H          -3.2296   -0.1901    1.8105 H       1  UNL1        0.0636
     37 H          -5.6466   -0.4218    1.9083 H       1  UNL1        0.0621
@<TRIPOS>BOND
     1     1     2    1
     2     2     3   ar
     3     3     4   ar
     4     4     5   ar
     5     5     6    1
     6     6     7   am
     7     7     8    2
     8     7     9    1
     9     9    10    1
    10    10    11    1
    11    11    12    2
    12    11    13    1
    13    13    14    1
    14    14    15    1
    15    15    16    1
    16    15    17    1
    17    15    18    1
    18    18    19    1
    19    18    20    1
    20     5    21   ar
    21    21    22   ar
    22    22     2   ar
    23     1    23    1
    24     1    24    1
    25     1    25    1
    26     3    26    1
    27     4    27    1
    28     6    28    1
    29     9    29    1
    30     9    30    1
    31    10    31    1
    32    10    32    1
    33    14    33    1
    34    14    34    1
    35    18    35    1
    36    21    36    1
    37    22    37    1
