@<TRIPOS>MOLECULE
*****
 30 31 0 0 0
SMALL
GASTEIGER

@<TRIPOS>ATOM
      1 C          -5.1214   -0.9064    0.4112 C.3     1  UNL1       -0.0383
      2 C          -3.6797   -0.6110    0.1082 C.ar    1  UNL1       -0.0320
      3 C          -2.8508   -0.1029    1.1157 C.ar    1  UNL1       -0.0557
      4 C          -1.5060    0.1791    0.8569 C.ar    1  UNL1       -0.0401
      5 C          -0.9573   -0.0402   -0.4120 C.ar    1  UNL1        0.0348
      6 N           0.4083    0.2759   -0.5790 N.am    1  UNL1       -0.2840
      7 C           1.1880    0.1030   -1.7107 C.2     1  UNL1        0.2370
      8 O           0.7901   -0.3471   -2.7849 O.2     1  UNL1       -0.2735
      9 C           2.6263    0.5897   -1.6020 C.3     1  UNL1        0.0993
     10 N           3.1856    0.5447   -0.2589 N.ar    1  UNL1       -0.3445
     11 C           3.5639   -0.5943    0.4025 C.ar    1  UNL1        0.0051
     12 C           4.0096   -0.2287    1.6536 C.ar    1  UNL1       -0.0442
     13 C           3.9061    1.1796    1.7447 C.ar    1  UNL1       -0.0442
     14 C           3.3993    1.6336    0.5466 C.ar    1  UNL1        0.0051
     15 C          -1.7783   -0.5452   -1.4198 C.ar    1  UNL1       -0.0219
     16 C          -3.1264   -0.8281   -1.1622 C.ar    1  UNL1        0.0456
     17 CL         -4.0838   -1.4512   -2.4612 Cl      1  UNL1       -0.0832
     18 H          -5.3353   -1.9683    0.2532 H       1  UNL1        0.0278
     19 H          -5.7770   -0.3007   -0.2225 H       1  UNL1        0.0278
     20 H          -5.3676   -0.6744    1.4531 H       1  UNL1        0.0278
     21 H          -3.2445    0.0778    2.1141 H       1  UNL1        0.0621
     22 H          -0.8955    0.5707    1.6676 H       1  UNL1        0.0636
     23 H           0.8731    0.6270    0.2521 H       1  UNL1        0.1549
     24 H           2.6779    1.6220   -1.9633 H       1  UNL1        0.0587
     25 H           3.2673   -0.0384   -2.2304 H       1  UNL1        0.0587
     26 H           3.4858   -1.5698   -0.0623 H       1  UNL1        0.0809
     27 H           4.3782   -0.9042    2.4153 H       1  UNL1        0.0632
     28 H           4.1820    1.7973    2.5901 H       1  UNL1        0.0632
     29 H           3.1813    2.6396    0.2098 H       1  UNL1        0.0809
     30 H          -1.3993   -0.7287   -2.4197 H       1  UNL1        0.0651
@<TRIPOS>BOND
     1     1     2    1
     2     2     3   ar
     3     3     4   ar
     4     4     5   ar
     5     5     6    1
     6     6     7   am
     7     7     8    2
     8     7     9    1
     9     9    10    1
    10    10    11   ar
    11    11    12   ar
    12    12    13   ar
    13    13    14   ar
    14     5    15   ar
    15    15    16   ar
    16    16    17    1
    17    16     2   ar
    18    14    10   ar
    19     1    18    1
    20     1    19    1
    21     1    20    1
    22     3    21    1
    23     4    22    1
    24     6    23    1
    25     9    24    1
    26     9    25    1
    27    11    26    1
    28    12    27    1
    29    13    28    1
    30    14    29    1
    31    15    30    1
