@<TRIPOS>MOLECULE
*****
 41 43 0 0 0
SMALL
GASTEIGER

@<TRIPOS>ATOM
      1 C          -7.5317   -0.0506   -1.2372 C.3     1  UNL1       -0.0397
      2 C          -6.1330    0.0585   -0.7074 C.ar    1  UNL1       -0.0503
      3 C          -5.8933    0.5727    0.5692 C.ar    1  UNL1       -0.0571
      4 C          -4.5849    0.7009    1.0465 C.ar    1  UNL1       -0.0402
      5 C          -3.4921    0.3267    0.2540 C.ar    1  UNL1        0.0350
      6 N          -2.2044    0.4919    0.8128 N.am    1  UNL1       -0.2658
      7 C          -0.9988    0.1480    0.2199 C.2     1  UNL1        0.3390
      8 O          -0.8125   -0.3860   -0.8654 O.2     1  UNL1       -0.2474
      9 N           0.1268    0.4818    1.0359 N.ar    1  UNL1       -0.1904
     10 C           0.1985    1.1675    2.2353 C.ar    1  UNL1        0.0364
     11 C           1.5234    1.2144    2.5927 C.ar    1  UNL1       -0.0112
     12 C           2.2301    0.5503    1.5580 C.ar    1  UNL1        0.1478
     13 C           3.6980    0.3402    1.5356 C.2     1  UNL1        0.2669
     14 O           4.3588    0.6069    2.5429 O.2     1  UNL1       -0.2682
     15 N           4.3235   -0.1621    0.3923 N.am    1  UNL1       -0.2919
     16 C           5.7356   -0.5333    0.4645 C.3     1  UNL1        0.0385
     17 C           6.0340   -1.7085   -0.4701 C.3     1  UNL1        0.0635
     18 O           5.7285   -1.4473   -1.8465 O.3     1  UNL1       -0.3767
     19 C           4.7410   -0.4268   -2.0403 C.3     1  UNL1        0.0635
     20 C           3.6950   -0.3519   -0.9207 C.3     1  UNL1        0.0385
     21 N           1.3728    0.1039    0.6270 N.ar    1  UNL1       -0.1581
     22 C          -3.7326   -0.1707   -1.0267 C.ar    1  UNL1       -0.0402
     23 C          -5.0422   -0.2994   -1.5050 C.ar    1  UNL1       -0.0571
     24 H          -7.6175   -0.8811   -1.9458 H       1  UNL1        0.0278
     25 H          -8.2426   -0.2413   -0.4264 H       1  UNL1        0.0278
     26 H          -7.8134    0.8776   -1.7439 H       1  UNL1        0.0278
     27 H          -6.7240    0.8761    1.2026 H       1  UNL1        0.0621
     28 H          -4.4409    1.0996    2.0471 H       1  UNL1        0.0636
     29 H          -2.2037    0.8586    1.7518 H       1  UNL1        0.1566
     30 H          -0.6656    1.5755    2.7344 H       1  UNL1        0.0832
     31 H           1.9486    1.6694    3.4780 H       1  UNL1        0.0656
     32 H           6.3111    0.3498    0.1638 H       1  UNL1        0.0487
     33 H           6.0144   -0.7902    1.4915 H       1  UNL1        0.0487
     34 H           5.4539   -2.5883   -0.1680 H       1  UNL1        0.0575
     35 H           7.0931   -1.9790   -0.4135 H       1  UNL1        0.0575
     36 H           4.2526   -0.6166   -3.0014 H       1  UNL1        0.0575
     37 H           5.2693    0.5301   -2.1282 H       1  UNL1        0.0575
     38 H           3.0149    0.4771   -1.1327 H       1  UNL1        0.0487
     39 H           3.1346   -1.2921   -0.8742 H       1  UNL1        0.0487
     40 H          -2.9258   -0.4674   -1.6897 H       1  UNL1        0.0636
     41 H          -5.1991   -0.6848   -2.5106 H       1  UNL1        0.0621
@<TRIPOS>BOND
     1     1     2    1
     2     2     3   ar
     3     3     4   ar
     4     4     5   ar
     5     5     6    1
     6     6     7   am
     7     7     8    2
     8     7     9   am
     9     9    10   ar
    10    10    11   ar
    11    11    12   ar
    12    12    13    1
    13    13    14    2
    14    13    15   am
    15    15    16    1
    16    16    17    1
    17    17    18    1
    18    18    19    1
    19    19    20    1
    20    12    21   ar
    21     5    22   ar
    22    22    23   ar
    23    23     2   ar
    24    21     9   ar
    25    20    15    1
    26     1    24    1
    27     1    25    1
    28     1    26    1
    29     3    27    1
    30     4    28    1
    31     6    29    1
    32    10    30    1
    33    11    31    1
    34    16    32    1
    35    16    33    1
    36    17    34    1
    37    17    35    1
    38    19    36    1
    39    19    37    1
    40    20    38    1
    41    20    39    1
    42    22    40    1
    43    23    41    1
