@<TRIPOS>MOLECULE
*****
 41 42 0 0 0
SMALL
GASTEIGER

@<TRIPOS>ATOM
      1 C           7.1684   -0.2356    0.8146 C.3     1  UNL1       -0.0397
      2 C           5.6793   -0.3866    0.7193 C.ar    1  UNL1       -0.0501
      3 C           5.0573   -1.5653    1.1319 C.ar    1  UNL1       -0.0571
      4 C           3.6690   -1.6924    1.0549 C.ar    1  UNL1       -0.0400
      5 C           2.8790   -0.6489    0.5535 C.ar    1  UNL1        0.0355
      6 N           1.4816   -0.8711    0.5095 N.am    1  UNL1       -0.2967
      7 C           0.6524   -0.7133   -0.5997 C.2     1  UNL1        0.1346
      8 S           1.1349   -0.5937   -2.1959 S.2     1  UNL1       -0.0186
      9 N          -0.6694   -0.7556   -0.1771 N.am    1  UNL1       -0.3255
     10 C          -1.8642   -0.5828   -1.0053 C.3     1  UNL1        0.0200
     11 C          -2.1778    0.8924   -1.2693 C.3     1  UNL1        0.0139
     12 S          -3.7187    1.1039   -2.2317 S.3     1  UNL1       -0.1237
     13 C          -4.9332    0.6461   -1.0105 C.ar    1  UNL1        0.0080
     14 C          -5.7695   -0.4482   -1.2561 C.ar    1  UNL1       -0.0469
     15 C          -6.7329   -0.8255   -0.3164 C.ar    1  UNL1       -0.0423
     16 C          -6.8670   -0.1006    0.8657 C.ar    1  UNL1        0.0410
     17 CL         -8.0507   -0.5643    2.0241 Cl      1  UNL1       -0.0835
     18 C          -6.0503    1.0009    1.1131 C.ar    1  UNL1       -0.0423
     19 C          -5.0867    1.3765    0.1728 C.ar    1  UNL1       -0.0469
     20 C           3.4813    0.5752    0.2155 C.ar    1  UNL1       -0.0290
     21 C           2.7147    1.8107   -0.1696 C.3     1  UNL1       -0.0379
     22 C           4.8847    0.6795    0.2802 C.ar    1  UNL1       -0.0542
     23 H           7.4412    0.1761    1.7912 H       1  UNL1        0.0278
     24 H           7.5437    0.4311    0.0311 H       1  UNL1        0.0278
     25 H           7.6684   -1.2013    0.6855 H       1  UNL1        0.0278
     26 H           5.6488   -2.3980    1.5052 H       1  UNL1        0.0621
     27 H           3.2181   -2.6332    1.3591 H       1  UNL1        0.0636
     28 H           1.1698   -1.6531    1.0730 H       1  UNL1        0.1538
     29 H          -0.7988   -0.6079    0.8158 H       1  UNL1        0.1477
     30 H          -1.7356   -1.1328   -1.9433 H       1  UNL1        0.0470
     31 H          -2.6764   -1.0605   -0.4472 H       1  UNL1        0.0470
     32 H          -2.2416    1.4497   -0.3288 H       1  UNL1        0.0395
     33 H          -1.3708    1.3541   -1.8468 H       1  UNL1        0.0395
     34 H          -5.6781   -1.0161   -2.1797 H       1  UNL1        0.0629
     35 H          -7.3750   -1.6793   -0.5161 H       1  UNL1        0.0632
     36 H          -6.1631    1.5754    2.0288 H       1  UNL1        0.0632
     37 H          -4.4706    2.2509    0.3683 H       1  UNL1        0.0629
     38 H           2.7395    1.9556   -1.2532 H       1  UNL1        0.0278
     39 H           1.6760    1.7770    0.1710 H       1  UNL1        0.0278
     40 H           3.1604    2.6933    0.3039 H       1  UNL1        0.0278
     41 H           5.3619    1.6178    0.0001 H       1  UNL1        0.0623
@<TRIPOS>BOND
     1     1     2    1
     2     2     3   ar
     3     3     4   ar
     4     4     5   ar
     5     5     6    1
     6     6     7    1
     7     7     8    2
     8     7     9    1
     9     9    10    1
    10    10    11    1
    11    11    12    1
    12    12    13    1
    13    13    14   ar
    14    14    15   ar
    15    15    16   ar
    16    16    17    1
    17    16    18   ar
    18    18    19   ar
    19     5    20   ar
    20    20    21    1
    21    20    22   ar
    22    22     2   ar
    23    19    13   ar
    24     1    23    1
    25     1    24    1
    26     1    25    1
    27     3    26    1
    28     4    27    1
    29     6    28    1
    30     9    29    1
    31    10    30    1
    32    10    31    1
    33    11    32    1
    34    11    33    1
    35    14    34    1
    36    15    35    1
    37    18    36    1
    38    19    37    1
    39    21    38    1
    40    21    39    1
    41    21    40    1
    42    22    41    1
