@<TRIPOS>MOLECULE
*****
 32 34 0 0 0
SMALL
GASTEIGER

@<TRIPOS>ATOM
      1 C           6.5173   -0.0130   -0.6166 C.3     1  UNL1       -0.0397
      2 C           5.0534    0.1058   -0.3160 C.ar    1  UNL1       -0.0503
      3 C           4.1316   -0.7546   -0.9175 C.ar    1  UNL1       -0.0571
      4 C           2.7601   -0.6245   -0.6621 C.ar    1  UNL1       -0.0403
      5 C           2.2744    0.3718    0.1910 C.ar    1  UNL1        0.0310
      6 N           0.9127    0.5564    0.4852 N.pl3   1  UNL1       -0.3185
      7 C          -0.1805   -0.1454    0.0391 C.2     1  UNL1        0.0266
      8 C          -1.4687    0.0465    0.3481 C.2     1  UNL1        0.1656
      9 N          -2.5258   -0.6822   -0.1255 N.2     1  UNL1       -0.2015
     10 C          -3.5342   -0.1170    0.4569 C.2     1  UNL1        0.2674
     11 C          -4.9170   -0.4612    0.3371 C.ar    1  UNL1        0.1893
     12 C          -6.0604    0.0701    0.9076 C.ar    1  UNL1       -0.0111
     13 C          -7.1530   -0.6851    0.4163 C.ar    1  UNL1       -0.0231
     14 C          -6.6156   -1.6307   -0.4229 C.ar    1  UNL1        0.0928
     15 O          -5.2658   -1.5045   -0.4781 O.2     1  UNL1       -0.4582
     16 O          -3.2876    0.9311    1.2880 O.3     1  UNL1       -0.3987
     17 C          -1.9400    1.1070    1.2741 C.2     1  UNL1        0.3657
     18 O          -1.2959    1.9397    1.8820 O.2     1  UNL1       -0.2427
     19 C           3.2086    1.2400    0.7762 C.ar    1  UNL1       -0.0403
     20 C           4.5793    1.1147    0.5246 C.ar    1  UNL1       -0.0571
     21 H           6.7709    0.5962   -1.4896 H       1  UNL1        0.0278
     22 H           6.7912   -1.0538   -0.8192 H       1  UNL1        0.0278
     23 H           7.1194    0.3208    0.2351 H       1  UNL1        0.0278
     24 H           4.4708   -1.5376   -1.5920 H       1  UNL1        0.0621
     25 H           2.0888   -1.3224   -1.1511 H       1  UNL1        0.0636
     26 H           0.7093    1.3159    1.1373 H       1  UNL1        0.1517
     27 H           0.0474   -0.9521   -0.6505 H       1  UNL1        0.0805
     28 H          -6.0986    0.9037    1.5962 H       1  UNL1        0.0657
     29 H          -8.2021   -0.5571    0.6448 H       1  UNL1        0.0649
     30 H          -7.0351   -2.4249   -1.0254 H       1  UNL1        0.1029
     31 H           2.8747    2.0343    1.4399 H       1  UNL1        0.0636
     32 H           5.2704    1.8121    0.9923 H       1  UNL1        0.0621
@<TRIPOS>BOND
     1     1     2    1
     2     2     3   ar
     3     3     4   ar
     4     4     5   ar
     5     5     6    1
     6     6     7    1
     7     7     8    2
     8     8     9    1
     9     9    10    2
    10    10    11    1
    11    11    12   ar
    12    12    13   ar
    13    13    14   ar
    14    14    15   ar
    15    10    16    1
    16    16    17    1
    17    17    18    2
    18     5    19   ar
    19    19    20   ar
    20    20     2   ar
    21    17     8    1
    22    15    11   ar
    23     1    21    1
    24     1    22    1
    25     1    23    1
    26     3    24    1
    27     4    25    1
    28     6    26    1
    29     7    27    1
    30    12    28    1
    31    13    29    1
    32    14    30    1
    33    19    31    1
    34    20    32    1
