@<TRIPOS>MOLECULE
*****
 32 34 0 0 0
SMALL
GASTEIGER

@<TRIPOS>ATOM
      1 C          -6.4845   -0.6382    0.2540 C.3     1  UNL1       -0.0397
      2 C          -4.9870   -0.6638    0.1853 C.ar    1  UNL1       -0.0503
      3 C          -4.3103   -1.8275   -0.1830 C.ar    1  UNL1       -0.0571
      4 C          -2.9139   -1.8347   -0.2753 C.ar    1  UNL1       -0.0403
      5 C          -2.1550   -0.6822   -0.0125 C.ar    1  UNL1        0.0326
      6 N          -0.7578   -0.7609   -0.1284 N.pl3   1  UNL1       -0.2956
      7 C           0.1878    0.2008    0.0688 C.2     1  UNL1        0.1557
      8 N           0.0686    1.4406    0.3978 N.am    1  UNL1       -0.1540
      9 C           1.2692    2.1024    0.5056 C.2     1  UNL1        0.2760
     10 O           1.3918    3.2807    0.8071 O.2     1  UNL1       -0.2674
     11 C           2.4269    1.2079    0.2050 C.2     1  UNL1        0.0799
     12 C           3.6858    1.6591    0.2882 C.2     1  UNL1       -0.0291
     13 C           4.8573    0.8880    0.0352 C.ar    1  UNL1        0.0134
     14 C           5.1465   -0.0407   -0.9512 C.ar    1  UNL1       -0.0475
     15 C           6.4631   -0.5785   -0.8476 C.ar    1  UNL1       -0.0542
     16 C           7.1574   -0.0352    0.2068 C.ar    1  UNL1       -0.0238
     17 S           6.2309    1.1202    1.0551 S.2     1  UNL1       -0.0972
     18 S           1.8381   -0.3591   -0.1720 S.3     1  UNL1       -0.0514
     19 C          -2.8471    0.4803    0.3381 C.ar    1  UNL1       -0.0403
     20 C          -4.2448    0.4931    0.4322 C.ar    1  UNL1       -0.0571
     21 H          -6.8289    0.0830    1.0027 H       1  UNL1        0.0278
     22 H          -6.8792   -1.6182    0.5422 H       1  UNL1        0.0278
     23 H          -6.8993   -0.3624   -0.7203 H       1  UNL1        0.0278
     24 H          -4.8630   -2.7387   -0.4005 H       1  UNL1        0.0621
     25 H          -2.4250   -2.7631   -0.5610 H       1  UNL1        0.0636
     26 H          -0.4006   -1.6754   -0.3700 H       1  UNL1        0.1539
     27 H           3.8424    2.6905    0.6053 H       1  UNL1        0.0641
     28 H           4.4493   -0.3246   -1.7301 H       1  UNL1        0.0629
     29 H           6.8794   -1.3201   -1.5183 H       1  UNL1        0.0623
     30 H           8.1703   -0.2535    0.5164 H       1  UNL1        0.0693
     31 H          -2.3235    1.4090    0.5461 H       1  UNL1        0.0636
     32 H          -4.7450    1.4210    0.7023 H       1  UNL1        0.0621
@<TRIPOS>BOND
     1     1     2    1
     2     2     3   ar
     3     3     4   ar
     4     4     5   ar
     5     5     6    1
     6     6     7    1
     7     7     8    2
     8     8     9    1
     9     9    10    2
    10     9    11    1
    11    11    12    2
    12    12    13    1
    13    13    14   ar
    14    14    15   ar
    15    15    16   ar
    16    16    17   ar
    17    11    18    1
    18     5    19   ar
    19    19    20   ar
    20    20     2   ar
    21    18     7    1
    22    17    13   ar
    23     1    21    1
    24     1    22    1
    25     1    23    1
    26     3    24    1
    27     4    25    1
    28     6    26    1
    29    12    27    1
    30    14    28    1
    31    15    29    1
    32    16    30    1
    33    19    31    1
    34    20    32    1
