@<TRIPOS>MOLECULE
*****
 37 39 0 0 0
SMALL
GASTEIGER

@<TRIPOS>ATOM
      1 C          -7.6117   -0.3634    0.4121 C.3     1  UNL1       -0.0397
      2 C          -6.1712    0.0215    0.5692 C.ar    1  UNL1       -0.0503
      3 C          -5.1564   -0.8994    0.2953 C.ar    1  UNL1       -0.0571
      4 C          -3.8097   -0.5327    0.4105 C.ar    1  UNL1       -0.0402
      5 C          -3.4438    0.7599    0.7972 C.ar    1  UNL1        0.0328
      6 N          -2.1134    1.2085    0.9092 N.pl3   1  UNL1       -0.2937
      7 C          -0.9713    0.6780    0.4138 C.ar    1  UNL1        0.1631
      8 N           0.1704    0.8166    1.0495 N.ar    1  UNL1       -0.2200
      9 C           1.2325    0.2512    0.3441 C.ar    1  UNL1        0.1346
     10 C           2.5946    0.2695    0.9016 C.2     1  UNL1        0.2633
     11 O           2.8233    0.5054    2.0850 O.2     1  UNL1       -0.2685
     12 N           3.6105    0.0214    0.0012 N.am    1  UNL1       -0.3030
     13 C           4.9861    0.1815    0.4053 C.3     1  UNL1        0.0701
     14 C           5.8565   -0.3723   -0.6586 C.ar    1  UNL1        0.1218
     15 C           6.8232   -1.3565   -0.6760 C.ar    1  UNL1       -0.0192
     16 C           7.2990   -1.4247   -2.0077 C.ar    1  UNL1       -0.0236
     17 C           6.5949   -0.4810   -2.7167 C.ar    1  UNL1        0.0921
     18 O           5.7123    0.1609   -1.9091 O.2     1  UNL1       -0.4662
     19 C           0.8550   -0.3020   -0.8662 C.ar    1  UNL1        0.0094
     20 S          -0.8227   -0.0923   -1.1234 S.2     1  UNL1       -0.0598
     21 C          -4.4708    1.6804    1.0534 C.ar    1  UNL1       -0.0402
     22 C          -5.8174    1.3210    0.9379 C.ar    1  UNL1       -0.0571
     23 H          -7.9299   -0.2089   -0.6241 H       1  UNL1        0.0278
     24 H          -7.7639   -1.4148    0.6772 H       1  UNL1        0.0278
     25 H          -8.2518    0.2338    1.0705 H       1  UNL1        0.0278
     26 H          -5.4038   -1.9155   -0.0048 H       1  UNL1        0.0621
     27 H          -3.0598   -1.2956    0.2236 H       1  UNL1        0.0636
     28 H          -1.9704    1.7619    1.7475 H       1  UNL1        0.1541
     29 H           3.4242    0.1079   -0.9880 H       1  UNL1        0.1495
     30 H           5.1817    1.2497    0.5482 H       1  UNL1        0.0543
     31 H           5.1488   -0.3305    1.3595 H       1  UNL1        0.0543
     32 H           7.1429   -1.9519    0.1685 H       1  UNL1        0.0652
     33 H           8.0618   -2.0805   -2.4021 H       1  UNL1        0.0649
     34 H           6.6026   -0.1612   -3.7494 H       1  UNL1        0.1029
     35 H           1.4586   -0.8154   -1.5998 H       1  UNL1        0.0717
     36 H          -4.2259    2.7029    1.3328 H       1  UNL1        0.0636
     37 H          -6.5848    2.0664    1.1345 H       1  UNL1        0.0621
@<TRIPOS>BOND
     1     1     2    1
     2     2     3   ar
     3     3     4   ar
     4     4     5   ar
     5     5     6    1
     6     6     7    1
     7     7     8   ar
     8     8     9   ar
     9     9    10    1
    10    10    11    2
    11    10    12   am
    12    12    13    1
    13    13    14    1
    14    14    15   ar
    15    15    16   ar
    16    16    17   ar
    17    17    18   ar
    18     9    19   ar
    19    19    20   ar
    20     5    21   ar
    21    21    22   ar
    22    22     2   ar
    23    20     7   ar
    24    18    14   ar
    25     1    23    1
    26     1    24    1
    27     1    25    1
    28     3    26    1
    29     4    27    1
    30     6    28    1
    31    12    29    1
    32    13    30    1
    33    13    31    1
    34    15    32    1
    35    16    33    1
    36    17    34    1
    37    19    35    1
    38    21    36    1
    39    22    37    1
