@<TRIPOS>MOLECULE
*****
 49 56 0 0 0
SMALL
GASTEIGER

@<TRIPOS>ATOM
      1 SI         -5.8840   -2.6625   -0.3544 Si      1  UNL1        0.0000
      2 C          -6.8764   -1.0921   -0.1193 C.2     1  UNL1        0.0000
      3 C          -6.0620   -0.0252   -0.0222 C.ar    1  UNL1        0.0000
      4 C          -6.4971    1.3433    0.1685 C.ar    1  UNL1        0.0000
      5 C          -5.5672    2.3129    0.2518 C.ar    1  UNL1        0.0000
      6 C          -4.1364    2.0284    0.1536 C.ar    1  UNL1        0.0000
      7 C          -3.6481    0.7777   -0.0255 C.ar    1  UNL1        0.0000
      8 C          -2.1920    0.6129   -0.1183 C.ar    1  UNL1        0.0000
      9 C          -1.5595    0.4491   -1.3347 C.ar    1  UNL1        0.0000
     10 N          -0.2207    0.2819   -1.4848 N.ar    1  UNL1        0.0000
     11 C           0.6016    0.2622   -0.4098 C.ar    1  UNL1        0.0000
     12 C           0.0176    0.4205    0.8731 C.ar    1  UNL1        0.0000
     13 C          -1.3848    0.5950    1.0098 C.ar    1  UNL1        0.0000
     14 C           0.9552    0.3831    1.9374 C.ar    1  UNL1        0.0000
     15 C           0.5791    0.5173    3.2569 C.ar    1  UNL1        0.0000
     16 S           1.9128    0.4336    4.3181 S.2     1  UNL1        0.0000
     17 C           3.0032    0.2160    3.0129 C.ar    1  UNL1        0.0000
     18 C           2.3888    0.2037    1.7800 C.ar    1  UNL1        0.0000
     19 C           3.0633    0.0379    0.5212 C.ar    1  UNL1        0.0000
     20 C           4.4990   -0.1501    0.2360 C.ar    1  UNL1        0.0000
     21 SI          6.0216   -0.2483    1.3875 Si      1  UNL1        0.0000
     22 C           7.1488   -0.4827   -0.0846 C.2     1  UNL1        0.0000
     23 C           6.4849   -0.4862   -1.2518 C.2     1  UNL1        0.0000
     24 C           5.0482   -0.3057   -1.0765 C.ar    1  UNL1        0.0000
     25 C           4.0801   -0.2604   -2.0586 C.ar    1  UNL1        0.0000
     26 C           4.2658   -0.3761   -3.4107 C.ar    1  UNL1        0.0000
     27 O           3.0640   -0.2791   -4.0440 O.2     1  UNL1        0.0000
     28 C           2.1113   -0.1002   -3.0813 C.ar    1  UNL1        0.0000
     29 C           2.6798   -0.0801   -1.8271 C.ar    1  UNL1        0.0000
     30 C           2.0431    0.0830   -0.5548 C.ar    1  UNL1        0.0000
     31 C          -4.6123   -0.3227   -0.1214 C.ar    1  UNL1        0.0000
     32 C          -4.3233   -1.6288   -0.2921 C.2     1  UNL1        0.0000
     33 H          -6.1051   -3.2744   -1.6867 H       1  UNL1        0.0000
     34 H          -6.0006   -3.5808    0.8039 H       1  UNL1        0.0000
     35 H          -7.9534   -1.1041   -0.0739 H       1  UNL1        0.0000
     36 H          -7.5556    1.5653    0.2410 H       1  UNL1        0.0000
     37 H          -5.8617    3.3483    0.3939 H       1  UNL1        0.0000
     38 H          -3.4743    2.8880    0.2269 H       1  UNL1        0.0000
     39 H          -2.1230    0.4450   -2.2647 H       1  UNL1        0.0000
     40 H          -1.8447    0.7098    1.9863 H       1  UNL1        0.0000
     41 H          -0.4042    0.6612    3.6809 H       1  UNL1        0.0000
     42 H           4.0364    0.1132    3.2877 H       1  UNL1        0.0000
     43 H           5.9773   -1.4431    2.2660 H       1  UNL1        0.0000
     44 H           6.2673    1.0333    2.0938 H       1  UNL1        0.0000
     45 H           8.2143   -0.5986    0.0423 H       1  UNL1        0.0000
     46 H           6.9475   -0.6078   -2.2212 H       1  UNL1        0.0000
     47 H           5.1201   -0.5211   -4.0561 H       1  UNL1        0.0000
     48 H           1.1052   -0.0084   -3.4644 H       1  UNL1        0.0000
     49 H          -3.3500   -2.0839   -0.3853 H       1  UNL1        0.0000
@<TRIPOS>BOND
     1     1     2    1
     2     2     3    2
     3     3     4   ar
     4     4     5   ar
     5     5     6   ar
     6     6     7   ar
     7     7     8    1
     8     8     9   ar
     9     9    10   ar
    10    10    11   ar
    11    11    12   ar
    12    12    13   ar
    13    12    14   ar
    14    14    15   ar
    15    15    16   ar
    16    16    17   ar
    17    17    18   ar
    18    18    19   ar
    19    19    20   ar
    20    20    21    1
    21    21    22    1
    22    22    23    2
    23    23    24    1
    24    24    25   ar
    25    25    26   ar
    26    26    27   ar
    27    27    28   ar
    28    28    29   ar
    29    29    30   ar
    30     7    31   ar
    31    31    32    2
    32    32     1    1
    33    31     3   ar
    34    13     8   ar
    35    18    14   ar
    36    30    19   ar
    37    30    11   ar
    38    24    20   ar
    39    29    25   ar
    40     1    33    1
    41     1    34    1
    42     2    35    1
    43     4    36    1
    44     5    37    1
    45     6    38    1
    46     9    39    1
    47    13    40    1
    48    15    41    1
    49    17    42    1
    50    21    43    1
    51    21    44    1
    52    22    45    1
    53    23    46    1
    54    26    47    1
    55    28    48    1
    56    32    49    1
