@<TRIPOS>MOLECULE
*****
 42 43 0 0 0
SMALL
GASTEIGER

@<TRIPOS>ATOM
      1 C           6.4028    1.1672   -0.0770 C.3     1  UNL1       -0.0397
      2 C           5.0209    0.5950    0.0340 C.ar    1  UNL1       -0.0500
      3 C           3.9469    1.4009    0.4194 C.ar    1  UNL1       -0.0554
      4 C           2.6528    0.8757    0.4928 C.ar    1  UNL1       -0.0194
      5 C           2.4121   -0.4627    0.1710 C.ar    1  UNL1        0.1241
      6 O           1.1863   -1.0726    0.2097 O.3     1  UNL1       -0.4825
      7 C           0.0682   -0.2870    0.6007 C.3     1  UNL1        0.1654
      8 C          -1.2263   -1.1165    0.5956 C.2     1  UNL1        0.2532
      9 O          -1.2241   -2.3135    0.3001 O.2     1  UNL1       -0.2719
     10 N          -2.4062   -0.4513    0.9615 N.am    1  UNL1       -0.2987
     11 C          -3.6554   -1.2043    0.9258 C.3     1  UNL1        0.0148
     12 C          -4.4851   -0.9176   -0.3264 C.3     1  UNL1       -0.0371
     13 C          -5.1528    0.4557   -0.2801 C.3     1  UNL1       -0.0516
     14 C          -4.2802    1.6365   -0.7061 C.3     1  UNL1       -0.0516
     15 C          -2.8110    1.6409   -0.2809 C.3     1  UNL1       -0.0371
     16 C          -2.5215    1.0029    1.0746 C.3     1  UNL1        0.0148
     17 C           3.4829   -1.2797   -0.2316 C.ar    1  UNL1       -0.0085
     18 C           3.2531   -2.7226   -0.5913 C.3     1  UNL1       -0.0362
     19 C           4.7779   -0.7413   -0.3021 C.ar    1  UNL1       -0.0525
     20 H           6.5681    1.5525   -1.0878 H       1  UNL1        0.0278
     21 H           6.5475    1.9819    0.6403 H       1  UNL1        0.0278
     22 H           7.1592    0.4058    0.1405 H       1  UNL1        0.0278
     23 H           4.1099    2.4474    0.6676 H       1  UNL1        0.0621
     24 H           1.8572    1.5433    0.8038 H       1  UNL1        0.0654
     25 H          -0.0569    0.5392   -0.1070 H       1  UNL1        0.0795
     26 H           0.2187    0.0772    1.6235 H       1  UNL1        0.0795
     27 H          -3.4470   -2.2787    0.9712 H       1  UNL1        0.0464
     28 H          -4.2196   -0.9634    1.8347 H       1  UNL1        0.0464
     29 H          -3.8829   -1.0275   -1.2356 H       1  UNL1        0.0280
     30 H          -5.2794   -1.6728   -0.3751 H       1  UNL1        0.0280
     31 H          -5.5459    0.6407    0.7276 H       1  UNL1        0.0266
     32 H          -6.0302    0.4396   -0.9394 H       1  UNL1        0.0266
     33 H          -4.7560    2.5518   -0.3301 H       1  UNL1        0.0266
     34 H          -4.3119    1.7222   -1.8001 H       1  UNL1        0.0266
     35 H          -2.2169    1.1489   -1.0613 H       1  UNL1        0.0280
     36 H          -2.4753    2.6854   -0.2596 H       1  UNL1        0.0280
     37 H          -1.5821    1.4065    1.4627 H       1  UNL1        0.0464
     38 H          -3.2919    1.2481    1.8143 H       1  UNL1        0.0464
     39 H           4.1867   -3.2198   -0.8748 H       1  UNL1        0.0279
     40 H           2.8358   -3.2648    0.2634 H       1  UNL1        0.0279
     41 H           2.5664   -2.7966   -1.4408 H       1  UNL1        0.0279
     42 H           5.6053   -1.3724   -0.6215 H       1  UNL1        0.0624
@<TRIPOS>BOND
     1     1     2    1
     2     2     3   ar
     3     3     4   ar
     4     4     5   ar
     5     5     6    1
     6     6     7    1
     7     7     8    1
     8     8     9    2
     9     8    10   am
    10    10    11    1
    11    11    12    1
    12    12    13    1
    13    13    14    1
    14    14    15    1
    15    15    16    1
    16     5    17   ar
    17    17    18    1
    18    17    19   ar
    19    19     2   ar
    20    16    10    1
    21     1    20    1
    22     1    21    1
    23     1    22    1
    24     3    23    1
    25     4    24    1
    26     7    25    1
    27     7    26    1
    28    11    27    1
    29    11    28    1
    30    12    29    1
    31    12    30    1
    32    13    31    1
    33    13    32    1
    34    14    33    1
    35    14    34    1
    36    15    35    1
    37    15    36    1
    38    16    37    1
    39    16    38    1
    40    18    39    1
    41    18    40    1
    42    18    41    1
    43    19    42    1
