@<TRIPOS>MOLECULE
*****
 36 37 0 0 0
SMALL
GASTEIGER

@<TRIPOS>ATOM
      1 C           7.3506   -0.1297    0.7129 C.3     1  UNL1       -0.0397
      2 C           5.8770    0.1216    0.5923 C.ar    1  UNL1       -0.0502
      3 C           5.2940    1.2326    1.2086 C.ar    1  UNL1       -0.0554
      4 C           3.9265    1.4796    1.0673 C.ar    1  UNL1       -0.0197
      5 C           3.1231    0.6311    0.3032 C.ar    1  UNL1        0.1212
      6 O           1.8052    0.9902    0.2505 O.3     1  UNL1       -0.4827
      7 C           0.9367    0.1580   -0.5023 C.3     1  UNL1        0.1666
      8 C          -0.4978    0.6819   -0.4566 C.2     1  UNL1        0.2667
      9 O          -0.8648    1.6956    0.1361 O.2     1  UNL1       -0.2705
     10 N          -1.3874   -0.1043   -1.1762 N.am    1  UNL1       -0.2313
     11 N          -2.7588    0.1666   -0.9854 N.am    1  UNL1       -0.2302
     12 C          -3.5841   -0.9297   -0.8092 C.2     1  UNL1        0.2616
     13 O          -3.1877   -2.0791   -0.9911 O.2     1  UNL1       -0.2686
     14 C          -4.9699   -0.6634   -0.3584 C.ar    1  UNL1        0.0562
     15 C          -5.5861    0.5882   -0.4406 C.ar    1  UNL1       -0.0467
     16 C          -6.8979    0.7355    0.0104 C.ar    1  UNL1       -0.0429
     17 C          -7.5504   -0.3748    0.5226 C.ar    1  UNL1        0.0276
     18 N          -6.9887   -1.5995    0.6060 N.ar    1  UNL1       -0.2625
     19 C          -5.7131   -1.7182    0.1588 C.ar    1  UNL1        0.0397
     20 C           3.7030   -0.4702   -0.3261 C.ar    1  UNL1       -0.0197
     21 C           5.0734   -0.7195   -0.1856 C.ar    1  UNL1       -0.0554
     22 H           7.7309    0.2304    1.6746 H       1  UNL1        0.0278
     23 H           7.5697   -1.2012    0.6582 H       1  UNL1        0.0278
     24 H           7.8847    0.3826   -0.0932 H       1  UNL1        0.0278
     25 H           5.8974    1.9140    1.8038 H       1  UNL1        0.0621
     26 H           3.4830    2.3440    1.5561 H       1  UNL1        0.0654
     27 H           0.9286   -0.8560   -0.0844 H       1  UNL1        0.0795
     28 H           1.2454    0.1417   -1.5545 H       1  UNL1        0.0795
     29 H          -1.1758   -1.0850   -1.3672 H       1  UNL1        0.1729
     30 H          -2.9504    1.0553   -0.5212 H       1  UNL1        0.1731
     31 H          -5.0803    1.4496   -0.8652 H       1  UNL1        0.0626
     32 H          -7.4030    1.6943   -0.0418 H       1  UNL1        0.0633
     33 H          -8.5725   -0.3078    0.8855 H       1  UNL1        0.0829
     34 H          -5.2964   -2.7199    0.2375 H       1  UNL1        0.0837
     35 H           3.1252   -1.1555   -0.9361 H       1  UNL1        0.0654
     36 H           5.5104   -1.5791   -0.6895 H       1  UNL1        0.0621
@<TRIPOS>BOND
     1     1     2    1
     2     2     3   ar
     3     3     4   ar
     4     4     5   ar
     5     5     6    1
     6     6     7    1
     7     7     8    1
     8     8     9    2
     9     8    10   am
    10    10    11    1
    11    11    12   am
    12    12    13    2
    13    12    14    1
    14    14    15   ar
    15    15    16   ar
    16    16    17   ar
    17    17    18   ar
    18    18    19   ar
    19     5    20   ar
    20    20    21   ar
    21    21     2   ar
    22    19    14   ar
    23     1    22    1
    24     1    23    1
    25     1    24    1
    26     3    25    1
    27     4    26    1
    28     7    27    1
    29     7    28    1
    30    10    29    1
    31    11    30    1
    32    15    31    1
    33    16    32    1
    34    17    33    1
    35    19    34    1
    36    20    35    1
    37    21    36    1
