@<TRIPOS>MOLECULE
*****
 43 45 0 0 0
SMALL
GASTEIGER

@<TRIPOS>ATOM
      1 C          -8.2584   -0.3964    0.1739 C.3     1  UNL1       -0.0397
      2 C          -6.7615   -0.3051    0.1588 C.ar    1  UNL1       -0.0502
      3 C          -6.0355   -0.7204   -0.9632 C.ar    1  UNL1       -0.0554
      4 C          -4.6367   -0.6655   -0.9705 C.ar    1  UNL1       -0.0197
      5 C          -3.9477   -0.2037    0.1505 C.ar    1  UNL1        0.1210
      6 O          -2.5906   -0.0990    0.2791 O.3     1  UNL1       -0.4873
      7 C          -1.7967   -0.4934   -0.8407 C.3     1  UNL1        0.1178
      8 C          -0.3431   -0.3428   -0.5317 C.ar    1  UNL1        0.0310
      9 C           0.6195    0.4113   -1.2612 C.ar    1  UNL1       -0.0046
     10 C           1.8308    0.2627   -0.6151 C.ar    1  UNL1        0.1901
     11 C           3.1463    0.8035   -0.9118 C.2     1  UNL1        0.2836
     12 O           3.3486    1.5197   -1.8868 O.2     1  UNL1       -0.2665
     13 N           4.0969    0.4147    0.0151 N.am    1  UNL1       -0.2790
     14 C           5.4650    0.7384    0.0573 C.ar    1  UNL1        0.0338
     15 C           6.1069    1.5470   -0.8819 C.ar    1  UNL1       -0.0405
     16 C           7.4741    1.8197   -0.7653 C.ar    1  UNL1       -0.0600
     17 C           8.2096    1.2870    0.2907 C.ar    1  UNL1       -0.0616
     18 C           7.5789    0.4794    1.2327 C.ar    1  UNL1       -0.0600
     19 C           6.2134    0.2068    1.1160 C.ar    1  UNL1       -0.0405
     20 O           1.6660   -0.5482    0.4777 O.2     1  UNL1       -0.4550
     21 C           0.3538   -0.9089    0.5214 C.ar    1  UNL1        0.1093
     22 C          -0.0488   -1.7812    1.6455 C.3     1  UNL1       -0.0060
     23 C          -4.6704    0.1977    1.2760 C.ar    1  UNL1       -0.0197
     24 C          -6.0661    0.1435    1.2853 C.ar    1  UNL1       -0.0554
     25 H          -8.5694   -1.3822    0.5338 H       1  UNL1        0.0278
     26 H          -8.6903    0.3709    0.8257 H       1  UNL1        0.0278
     27 H          -8.6691   -0.2388   -0.8292 H       1  UNL1        0.0278
     28 H          -6.5560   -1.0897   -1.8444 H       1  UNL1        0.0621
     29 H          -4.1236   -0.9931   -1.8681 H       1  UNL1        0.0654
     30 H          -1.9873   -1.5464   -1.0845 H       1  UNL1        0.0749
     31 H          -2.0466    0.1306   -1.7079 H       1  UNL1        0.0749
     32 H           0.4602    1.0024   -2.1536 H       1  UNL1        0.0661
     33 H           3.7399   -0.1803    0.7552 H       1  UNL1        0.1552
     34 H           5.5738    1.9844   -1.7198 H       1  UNL1        0.0636
     35 H           7.9612    2.4514   -1.5040 H       1  UNL1        0.0618
     36 H           9.2713    1.5018    0.3778 H       1  UNL1        0.0618
     37 H           8.1482    0.0618    2.0590 H       1  UNL1        0.0618
     38 H           5.7446   -0.4265    1.8647 H       1  UNL1        0.0636
     39 H           0.8071   -2.3404    2.0367 H       1  UNL1        0.0308
     40 H          -0.4679   -1.1807    2.4586 H       1  UNL1        0.0308
     41 H          -0.8051   -2.5043    1.3247 H       1  UNL1        0.0308
     42 H          -4.1415    0.5559    2.1560 H       1  UNL1        0.0654
     43 H          -6.6037    0.4565    2.1773 H       1  UNL1        0.0621
@<TRIPOS>BOND
     1     1     2    1
     2     2     3   ar
     3     3     4   ar
     4     4     5   ar
     5     5     6    1
     6     6     7    1
     7     7     8    1
     8     8     9   ar
     9     9    10   ar
    10    10    11    1
    11    11    12    2
    12    11    13   am
    13    13    14    1
    14    14    15   ar
    15    15    16   ar
    16    16    17   ar
    17    17    18   ar
    18    18    19   ar
    19    10    20   ar
    20    20    21   ar
    21    21    22    1
    22     5    23   ar
    23    23    24   ar
    24    24     2   ar
    25    21     8   ar
    26    19    14   ar
    27     1    25    1
    28     1    26    1
    29     1    27    1
    30     3    28    1
    31     4    29    1
    32     7    30    1
    33     7    31    1
    34     9    32    1
    35    13    33    1
    36    15    34    1
    37    16    35    1
    38    17    36    1
    39    18    37    1
    40    19    38    1
    41    22    39    1
    42    22    40    1
    43    22    41    1
    44    23    42    1
    45    24    43    1
