@<TRIPOS>MOLECULE
*****
 40 42 0 0 0
SMALL
GASTEIGER

@<TRIPOS>ATOM
      1 C           4.4974    1.6169   -2.5631 C.3     1  UNL1       -0.0397
      2 C           3.6524    1.0443   -1.4631 C.ar    1  UNL1       -0.0503
      3 C           3.2652   -0.3023   -1.4989 C.ar    1  UNL1       -0.0570
      4 C           2.5072   -0.8495   -0.4626 C.ar    1  UNL1       -0.0362
      5 C           2.1388   -0.0447    0.6182 C.ar    1  UNL1        0.0955
      6 S           1.1501   -0.7252    1.9221 S.O2    1  UNL1        0.0470
      7 O           0.5612    0.3637    2.6781 O.2     1  UNL1       -0.1627
      8 O           1.9395   -1.7547    2.5704 O.2     1  UNL1       -0.1627
      9 C          -0.1652   -1.5389    1.1445 C.ar    1  UNL1        0.2426
     10 N          -0.0823   -2.9007    0.8495 N.ar    1  UNL1       -0.1929
     11 C          -1.2485   -3.1761    0.3197 C.ar    1  UNL1        0.1966
     12 C          -1.7692   -4.4681   -0.1648 C.3     1  UNL1        0.0123
     13 O          -2.0792   -2.1068    0.2023 O.2     1  UNL1       -0.4244
     14 C          -1.3851   -1.0318    0.7129 C.ar    1  UNL1        0.2353
     15 N          -2.0489    0.1526    0.6450 N.pl3   1  UNL1       -0.2942
     16 C          -3.4819    0.1843    0.3070 C.3     1  UNL1        0.0384
     17 C          -4.1052    1.5125    0.7635 C.3     1  UNL1        0.0635
     18 O          -3.5043    2.6656    0.1571 O.3     1  UNL1       -0.3767
     19 C          -2.1136    2.4879   -0.1441 C.3     1  UNL1        0.0635
     20 C          -1.3967    1.4598    0.7498 C.3     1  UNL1        0.0384
     21 C           2.5404    1.2922    0.6810 C.ar    1  UNL1       -0.0362
     22 C           3.2974    1.8325   -0.3595 C.ar    1  UNL1       -0.0570
     23 H           5.5573    1.4577   -2.3417 H       1  UNL1        0.0278
     24 H           4.3164    2.6909   -2.6776 H       1  UNL1        0.0278
     25 H           4.2599    1.1447   -3.5222 H       1  UNL1        0.0278
     26 H           3.5585   -0.9346   -2.3349 H       1  UNL1        0.0621
     27 H           2.2250   -1.8998   -0.5019 H       1  UNL1        0.0637
     28 H          -2.6938   -4.7274    0.3581 H       1  UNL1        0.0324
     29 H          -1.0420   -5.2669    0.0075 H       1  UNL1        0.0324
     30 H          -1.9784   -4.4184   -1.2376 H       1  UNL1        0.0324
     31 H          -4.0183   -0.6352    0.7989 H       1  UNL1        0.0487
     32 H          -3.5939    0.0746   -0.7783 H       1  UNL1        0.0487
     33 H          -5.1725    1.5317    0.5205 H       1  UNL1        0.0575
     34 H          -4.0147    1.6237    1.8509 H       1  UNL1        0.0575
     35 H          -1.6302    3.4660   -0.0537 H       1  UNL1        0.0575
     36 H          -2.0414    2.1858   -1.1954 H       1  UNL1        0.0575
     37 H          -0.3565    1.4108    0.4219 H       1  UNL1        0.0487
     38 H          -1.4340    1.7946    1.7919 H       1  UNL1        0.0487
     39 H           2.2748    1.9159    1.5321 H       1  UNL1        0.0637
     40 H           3.6144    2.8723   -0.3036 H       1  UNL1        0.0621
@<TRIPOS>BOND
     1     1     2    1
     2     2     3   ar
     3     3     4   ar
     4     4     5   ar
     5     5     6    1
     6     6     7    2
     7     6     8    2
     8     6     9    1
     9     9    10   ar
    10    10    11   ar
    11    11    12    1
    12    11    13   ar
    13    13    14   ar
    14    14    15    1
    15    15    16    1
    16    16    17    1
    17    17    18    1
    18    18    19    1
    19    19    20    1
    20     5    21   ar
    21    21    22   ar
    22    22     2   ar
    23    14     9   ar
    24    20    15    1
    25     1    23    1
    26     1    24    1
    27     1    25    1
    28     3    26    1
    29     4    27    1
    30    12    28    1
    31    12    29    1
    32    12    30    1
    33    16    31    1
    34    16    32    1
    35    17    33    1
    36    17    34    1
    37    19    35    1
    38    19    36    1
    39    20    37    1
    40    20    38    1
    41    21    39    1
    42    22    40    1
