@<TRIPOS>MOLECULE
*****
 28 29 0 0 0
SMALL
GASTEIGER

@<TRIPOS>ATOM
      1 C          -3.7685   -0.0589   -2.1010 C.3     1  UNL1       -0.0397
      2 C          -2.7376   -0.1155   -1.0114 C.ar    1  UNL1       -0.0503
      3 C          -2.3964    1.0430   -0.2999 C.ar    1  UNL1       -0.0570
      4 C          -1.4192    0.9998    0.6958 C.ar    1  UNL1       -0.0351
      5 C          -0.7616   -0.2035    0.9637 C.ar    1  UNL1        0.1055
      6 S           0.4706   -0.2673    2.2440 S.O2    1  UNL1        0.0615
      7 O           0.5484   -1.6345    2.7127 O.2     1  UNL1       -0.1528
      8 O           0.2189    0.8314    3.1520 O.2     1  UNL1       -0.1528
      9 N           1.8833    0.0708    1.4116 N.3     1  UNL1       -0.1653
     10 C           2.2608    1.3609    0.7473 C.3     1  UNL1        0.0636
     11 C           3.0347    0.5222   -0.2352 C.2     1  UNL1        0.0886
     12 N           3.8128    0.8400   -1.2095 N.2     1  UNL1       -0.0938
     13 O           4.2799   -0.3281   -1.8221 O.2     1  UNL1       -0.4092
     14 C           2.5435   -0.7720    0.3598 C.3     1  UNL1        0.0636
     15 C          -1.0977   -1.3680    0.2686 C.ar    1  UNL1       -0.0351
     16 C          -2.0758   -1.3176   -0.7258 C.ar    1  UNL1       -0.0570
     17 H          -4.2910   -1.0167   -2.1945 H       1  UNL1        0.0278
     18 H          -3.2898    0.1783   -3.0560 H       1  UNL1        0.0278
     19 H          -4.5245    0.7032   -1.8844 H       1  UNL1        0.0278
     20 H          -2.8994    1.9846   -0.5118 H       1  UNL1        0.0621
     21 H          -1.1813    1.9019    1.2553 H       1  UNL1        0.0637
     22 H           1.4210    1.9000    0.3075 H       1  UNL1        0.0507
     23 H           2.8683    2.0039    1.3851 H       1  UNL1        0.0507
     24 H           4.8692    0.0195   -2.5195 H       1  UNL1        0.3278
     25 H           1.8468   -1.3191   -0.2762 H       1  UNL1        0.0507
     26 H           3.3206   -1.4205    0.7658 H       1  UNL1        0.0507
     27 H          -0.6087   -2.3131    0.4947 H       1  UNL1        0.0637
     28 H          -2.3275   -2.2251   -1.2714 H       1  UNL1        0.0621
@<TRIPOS>BOND
     1     1     2    1
     2     2     3   ar
     3     3     4   ar
     4     4     5   ar
     5     5     6    1
     6     6     7    2
     7     6     8    2
     8     6     9    1
     9     9    10    1
    10    10    11    1
    11    11    12    2
    12    12    13    1
    13    11    14    1
    14     5    15   ar
    15    15    16   ar
    16    16     2   ar
    17    14     9    1
    18     1    17    1
    19     1    18    1
    20     1    19    1
    21     3    20    1
    22     4    21    1
    23    10    22    1
    24    10    23    1
    25    13    24    1
    26    14    25    1
    27    14    26    1
    28    15    27    1
    29    16    28    1
