@<TRIPOS>MOLECULE
*****
 36 37 0 0 0
SMALL
GASTEIGER

@<TRIPOS>ATOM
      1 C           6.0564    0.1277    1.1777 C.3     1  UNL1       -0.0397
      2 C           4.7724    0.1880    0.4019 C.ar    1  UNL1       -0.0503
      3 C           4.2291   -0.9771   -0.1574 C.ar    1  UNL1       -0.0570
      4 C           3.0247   -0.9292   -0.8609 C.ar    1  UNL1       -0.0348
      5 C           2.3527    0.2889   -0.9885 C.ar    1  UNL1        0.1086
      6 S           0.8077    0.3529   -1.8750 S.O2    1  UNL1        0.0756
      7 O           0.6349    1.7160   -2.3235 O.2     1  UNL1       -0.1499
      8 O           0.7897   -0.7802   -2.7721 O.2     1  UNL1       -0.1499
      9 N          -0.2542    0.0626   -0.6187 N.am    1  UNL1       -0.1680
     10 C          -1.6277    0.0015   -0.8113 C.2     1  UNL1        0.3372
     11 O          -2.1631    0.1531   -1.8956 O.2     1  UNL1       -0.2495
     12 N          -2.3019   -0.2432    0.3461 N.am    1  UNL1       -0.2027
     13 N          -3.6503   -0.2647    0.3242 N.ar    1  UNL1       -0.2273
     14 C          -4.4700    0.7905    0.6059 C.ar    1  UNL1        0.1479
     15 C          -4.0247    2.1918    0.7460 C.3     1  UNL1       -0.0029
     16 N          -5.6994    0.3289    0.7261 N.ar    1  UNL1       -0.1331
     17 N          -5.6716   -1.0346    0.5082 N.ar    1  UNL1       -0.1331
     18 C          -4.4256   -1.3864    0.2580 C.ar    1  UNL1        0.1479
     19 C          -3.9223   -2.7424   -0.0410 C.3     1  UNL1       -0.0029
     20 C           2.8802    1.4586   -0.4362 C.ar    1  UNL1       -0.0348
     21 C           4.0851    1.4023    0.2658 C.ar    1  UNL1       -0.0570
     22 H           5.8462   -0.0727    2.2327 H       1  UNL1        0.0278
     23 H           6.6052    1.0720    1.0986 H       1  UNL1        0.0278
     24 H           6.7101   -0.6608    0.7904 H       1  UNL1        0.0278
     25 H           4.7507   -1.9275   -0.0582 H       1  UNL1        0.0621
     26 H           2.6264   -1.8376   -1.3086 H       1  UNL1        0.0637
     27 H           0.1657   -0.0901    0.2870 H       1  UNL1        0.1782
     28 H          -1.8707   -0.2984    1.2523 H       1  UNL1        0.1774
     29 H          -3.5512    2.5431   -0.1760 H       1  UNL1        0.0309
     30 H          -4.8759    2.8460    0.9586 H       1  UNL1        0.0309
     31 H          -3.3085    2.2919    1.5674 H       1  UNL1        0.0309
     32 H          -3.2120   -3.0706    0.7241 H       1  UNL1        0.0309
     33 H          -4.7472   -3.4612   -0.0668 H       1  UNL1        0.0309
     34 H          -3.4236   -2.7661   -1.0149 H       1  UNL1        0.0309
     35 H           2.3691    2.4122   -0.5526 H       1  UNL1        0.0637
     36 H           4.4939    2.3147    0.6964 H       1  UNL1        0.0621
@<TRIPOS>BOND
     1     1     2    1
     2     2     3   ar
     3     3     4   ar
     4     4     5   ar
     5     5     6    1
     6     6     7    2
     7     6     8    2
     8     6     9    1
     9     9    10   am
    10    10    11    2
    11    10    12   am
    12    12    13    1
    13    13    14   ar
    14    14    15    1
    15    14    16   ar
    16    16    17   ar
    17    17    18   ar
    18    18    19    1
    19     5    20   ar
    20    20    21   ar
    21    21     2   ar
    22    18    13   ar
    23     1    22    1
    24     1    23    1
    25     1    24    1
    26     3    25    1
    27     4    26    1
    28     9    27    1
    29    12    28    1
    30    15    29    1
    31    15    30    1
    32    15    31    1
    33    19    32    1
    34    19    33    1
    35    19    34    1
    36    20    35    1
    37    21    36    1
