@<TRIPOS>MOLECULE
*****
 39 40 0 0 0
SMALL
GASTEIGER

@<TRIPOS>ATOM
      1 C           5.2537    1.0730    1.5544 C.3     1  UNL1       -0.0397
      2 C           4.1945    0.3345    0.7891 C.ar    1  UNL1       -0.0503
      3 C           3.3730   -0.5974    1.4390 C.ar    1  UNL1       -0.0570
      4 C           2.4099   -1.3119    0.7245 C.ar    1  UNL1       -0.0351
      5 C           2.2708   -1.0940   -0.6478 C.ar    1  UNL1        0.1053
      6 S           1.0587   -2.0009   -1.5715 S.O2    1  UNL1        0.0586
      7 O           0.4908   -3.0259   -0.7245 O.2     1  UNL1       -0.1530
      8 O           1.6285   -2.3091   -2.8645 O.2     1  UNL1       -0.1530
      9 N          -0.1114   -0.8361   -1.8406 N.3     1  UNL1       -0.1869
     10 C          -1.0449   -0.4557   -0.7804 C.3     1  UNL1        0.0289
     11 C          -1.2411    1.0631   -0.8307 C.3     1  UNL1       -0.0352
     12 C          -2.2879    1.5266    0.1802 C.3     1  UNL1       -0.0387
     13 C          -3.6154    0.7864   -0.0099 C.3     1  UNL1        0.0564
     14 C          -4.6319    1.2289    1.0161 C.2     1  UNL1        0.3078
     15 O          -5.6900    1.7865    0.7761 O.2     1  UNL1       -0.2507
     16 O          -4.2752    0.9566    2.2845 O.3     1  UNL1       -0.4804
     17 C          -3.4250   -0.7330    0.0257 C.3     1  UNL1       -0.0387
     18 C          -2.3737   -1.1886   -0.9846 C.3     1  UNL1       -0.0352
     19 C           3.0995   -0.1879   -1.3140 C.ar    1  UNL1       -0.0351
     20 C           4.0605    0.5228   -0.5935 C.ar    1  UNL1       -0.0570
     21 H           4.9415    1.2402    2.5907 H       1  UNL1        0.0278
     22 H           6.1851    0.4986    1.5532 H       1  UNL1        0.0278
     23 H           5.4426    2.0558    1.1100 H       1  UNL1        0.0278
     24 H           3.4830   -0.7748    2.5070 H       1  UNL1        0.0621
     25 H           1.7814   -2.0336    1.2413 H       1  UNL1        0.0637
     26 H          -0.3499   -0.6860   -2.8190 H       1  UNL1        0.1483
     27 H          -0.6336   -0.7151    0.2025 H       1  UNL1        0.0477
     28 H          -1.5494    1.3711   -1.8386 H       1  UNL1        0.0281
     29 H          -0.2890    1.5699   -0.6304 H       1  UNL1        0.0281
     30 H          -2.4442    2.6074    0.0786 H       1  UNL1        0.0274
     31 H          -1.9025    1.3649    1.1950 H       1  UNL1        0.0274
     32 H          -4.0238    1.0587   -0.9928 H       1  UNL1        0.0413
     33 H          -5.0240    1.2938    2.8204 H       1  UNL1        0.2951
     34 H          -4.3778   -1.2343   -0.1838 H       1  UNL1        0.0274
     35 H          -3.1207   -1.0564    1.0294 H       1  UNL1        0.0274
     36 H          -2.2275   -2.2714   -0.8938 H       1  UNL1        0.0281
     37 H          -2.7486   -1.0125   -2.0016 H       1  UNL1        0.0281
     38 H           3.0052   -0.0368   -2.3869 H       1  UNL1        0.0637
     39 H           4.7087    1.2225   -1.1175 H       1  UNL1        0.0621
@<TRIPOS>BOND
     1     1     2    1
     2     2     3   ar
     3     3     4   ar
     4     4     5   ar
     5     5     6    1
     6     6     7    2
     7     6     8    2
     8     6     9    1
     9     9    10    1
    10    10    11    1
    11    11    12    1
    12    12    13    1
    13    13    14    1
    14    14    15    2
    15    14    16    1
    16    13    17    1
    17    17    18    1
    18     5    19   ar
    19    19    20   ar
    20    20     2   ar
    21    18    10    1
    22     1    21    1
    23     1    22    1
    24     1    23    1
    25     3    24    1
    26     4    25    1
    27     9    26    1
    28    10    27    1
    29    11    28    1
    30    11    29    1
    31    12    30    1
    32    12    31    1
    33    13    32    1
    34    16    33    1
    35    17    34    1
    36    17    35    1
    37    18    36    1
    38    18    37    1
    39    19    38    1
    40    20    39    1
