@<TRIPOS>MOLECULE
*****
 43 44 0 0 0
SMALL
GASTEIGER

@<TRIPOS>ATOM
      1 C          -6.7522    1.1463    0.6375 C.3     1  UNL1       -0.0397
      2 C          -5.4458    0.4073    0.6526 C.ar    1  UNL1       -0.0503
      3 C          -4.4614    0.7311    1.5968 C.ar    1  UNL1       -0.0570
      4 C          -3.2587    0.0239    1.6368 C.ar    1  UNL1       -0.0351
      5 C          -3.0420   -1.0139    0.7276 C.ar    1  UNL1        0.1053
      6 S          -1.5205   -1.9258    0.7662 S.O2    1  UNL1        0.0588
      7 O          -1.8215   -3.3077    0.4688 O.2     1  UNL1       -0.1530
      8 O          -0.7877   -1.5409    1.9527 O.2     1  UNL1       -0.1530
      9 N          -0.6967   -1.3181   -0.5505 N.3     1  UNL1       -0.1811
     10 C          -0.3807    0.1111   -0.5982 C.3     1  UNL1        0.0939
     11 C           0.7708    0.3220   -1.5766 C.2     1  UNL1        0.2311
     12 O           0.5259    0.5279   -2.7690 O.2     1  UNL1       -0.2741
     13 N           2.0698    0.2489   -1.0882 N.am    1  UNL1       -0.3004
     14 C           2.4132   -0.1749    0.2726 C.3     1  UNL1        0.0149
     15 C           3.8073   -0.7915    0.3503 C.3     1  UNL1       -0.0345
     16 C           4.9027    0.1480   -0.1814 C.3     1  UNL1       -0.0410
     17 C           5.5694    0.9286    0.9520 C.3     1  UNL1       -0.0623
     18 C           4.3709    1.1129   -1.2543 C.3     1  UNL1       -0.0345
     19 C           3.1765    0.5302   -2.0003 C.3     1  UNL1        0.0149
     20 C          -4.0251   -1.3677   -0.1999 C.ar    1  UNL1       -0.0351
     21 C          -5.2250   -0.6560   -0.2338 C.ar    1  UNL1       -0.0570
     22 H          -7.4663    0.6573    1.3073 H       1  UNL1        0.0278
     23 H          -7.1742    1.1728   -0.3727 H       1  UNL1        0.0278
     24 H          -6.6172    2.1841    0.9598 H       1  UNL1        0.0278
     25 H          -4.6306    1.5349    2.3109 H       1  UNL1        0.0621
     26 H          -2.5071    0.2837    2.3789 H       1  UNL1        0.0637
     27 H          -0.8756   -1.7910   -1.4362 H       1  UNL1        0.1485
     28 H          -1.2435    0.6691   -0.9776 H       1  UNL1        0.0537
     29 H          -0.1261    0.5205    0.3825 H       1  UNL1        0.0537
     30 H           2.3486    0.7113    0.9142 H       1  UNL1        0.0464
     31 H           1.6828   -0.9026    0.6337 H       1  UNL1        0.0464
     32 H           3.8115   -1.7055   -0.2591 H       1  UNL1        0.0283
     33 H           4.0230   -1.1076    1.3774 H       1  UNL1        0.0283
     34 H           5.6782   -0.4814   -0.6383 H       1  UNL1        0.0299
     35 H           6.0260    0.2465    1.6770 H       1  UNL1        0.0232
     36 H           4.8453    1.5536    1.4857 H       1  UNL1        0.0232
     37 H           6.3595    1.5793    0.5625 H       1  UNL1        0.0232
     38 H           5.1738    1.3533   -1.9611 H       1  UNL1        0.0283
     39 H           4.0661    2.0613   -0.7924 H       1  UNL1        0.0283
     40 H           2.8508    1.2286   -2.7790 H       1  UNL1        0.0464
     41 H           3.4463   -0.4108   -2.4943 H       1  UNL1        0.0464
     42 H          -3.8690   -2.1953   -0.8882 H       1  UNL1        0.0637
     43 H          -5.9916   -0.9386   -0.9530 H       1  UNL1        0.0621
@<TRIPOS>BOND
     1     1     2    1
     2     2     3   ar
     3     3     4   ar
     4     4     5   ar
     5     5     6    1
     6     6     7    2
     7     6     8    2
     8     6     9    1
     9     9    10    1
    10    10    11    1
    11    11    12    2
    12    11    13   am
    13    13    14    1
    14    14    15    1
    15    15    16    1
    16    16    17    1
    17    16    18    1
    18    18    19    1
    19     5    20   ar
    20    20    21   ar
    21    21     2   ar
    22    19    13    1
    23     1    22    1
    24     1    23    1
    25     1    24    1
    26     3    25    1
    27     4    26    1
    28     9    27    1
    29    10    28    1
    30    10    29    1
    31    14    30    1
    32    14    31    1
    33    15    32    1
    34    15    33    1
    35    16    34    1
    36    17    35    1
    37    17    36    1
    38    17    37    1
    39    18    38    1
    40    18    39    1
    41    19    40    1
    42    19    41    1
    43    20    42    1
    44    21    43    1
