@<TRIPOS>MOLECULE
*****
 36 37 0 0 0
SMALL
GASTEIGER

@<TRIPOS>ATOM
      1 C          -4.6770   -2.0842   -0.6338 C.3     1  UNL1       -0.0397
      2 C          -3.8251   -0.8600   -0.4733 C.ar    1  UNL1       -0.0504
      3 C          -3.9015   -0.0902    0.6930 C.ar    1  UNL1       -0.0578
      4 C          -3.0885    1.0354    0.8542 C.ar    1  UNL1       -0.0481
      5 C          -2.1755    1.3945   -0.1401 C.ar    1  UNL1        0.0079
      6 S          -1.1201    2.8207    0.0324 S.3     1  UNL1       -0.1247
      7 C          -0.1658    2.3658    1.5320 C.3     1  UNL1        0.0066
      8 C           0.7279    1.1444    1.3353 C.3     1  UNL1        0.0335
      9 C           1.9598    1.4329    0.4948 C.2     1  UNL1        0.2163
     10 O           2.3727    2.5778    0.3136 O.2     1  UNL1       -0.2756
     11 N           2.6365    0.3356    0.0055 N.am    1  UNL1       -0.3015
     12 C           3.8707    0.4892   -0.7449 C.3     1  UNL1        0.0147
     13 C           4.4768   -0.9059   -0.7610 C.3     1  UNL1       -0.0357
     14 C           3.2498   -1.8078   -0.7546 C.3     1  UNL1       -0.0357
     15 C           2.2803   -1.0668    0.1569 C.3     1  UNL1        0.0147
     16 C          -2.0978    0.6282   -1.3058 C.ar    1  UNL1       -0.0481
     17 C          -2.9097   -0.4976   -1.4677 C.ar    1  UNL1       -0.0578
     18 H          -5.6317   -1.9672   -0.1103 H       1  UNL1        0.0278
     19 H          -4.9060   -2.2653   -1.6893 H       1  UNL1        0.0278
     20 H          -4.1563   -2.9576   -0.2296 H       1  UNL1        0.0278
     21 H          -4.6024   -0.3557    1.4814 H       1  UNL1        0.0621
     22 H          -3.1851    1.6312    1.7580 H       1  UNL1        0.0629
     23 H          -0.8691    2.1807    2.3505 H       1  UNL1        0.0384
     24 H           0.4269    3.2403    1.8206 H       1  UNL1        0.0384
     25 H           1.0961    0.8232    2.3178 H       1  UNL1        0.0366
     26 H           0.1538    0.3136    0.9194 H       1  UNL1        0.0366
     27 H           4.5279    1.2316   -0.2824 H       1  UNL1        0.0464
     28 H           3.6088    0.8237   -1.7549 H       1  UNL1        0.0464
     29 H           5.1279   -1.0735   -1.6232 H       1  UNL1        0.0281
     30 H           5.0624   -1.0721    0.1512 H       1  UNL1        0.0281
     31 H           3.4639   -2.8219   -0.4065 H       1  UNL1        0.0281
     32 H           2.8349   -1.8733   -1.7678 H       1  UNL1        0.0281
     33 H           1.2394   -1.2440   -0.1258 H       1  UNL1        0.0464
     34 H           2.4230   -1.3406    1.2076 H       1  UNL1        0.0464
     35 H          -1.4012    0.8995   -2.0961 H       1  UNL1        0.0629
     36 H          -2.8266   -1.0844   -2.3798 H       1  UNL1        0.0621
@<TRIPOS>BOND
     1     1     2    1
     2     2     3   ar
     3     3     4   ar
     4     4     5   ar
     5     5     6    1
     6     6     7    1
     7     7     8    1
     8     8     9    1
     9     9    10    2
    10     9    11   am
    11    11    12    1
    12    12    13    1
    13    13    14    1
    14    14    15    1
    15     5    16   ar
    16    16    17   ar
    17    17     2   ar
    18    15    11    1
    19     1    18    1
    20     1    19    1
    21     1    20    1
    22     3    21    1
    23     4    22    1
    24     7    23    1
    25     7    24    1
    26     8    25    1
    27     8    26    1
    28    12    27    1
    29    12    28    1
    30    13    29    1
    31    13    30    1
    32    14    31    1
    33    14    32    1
    34    15    33    1
    35    15    34    1
    36    16    35    1
    37    17    36    1
