@<TRIPOS>MOLECULE
*****
 36 37 0 0 0
SMALL
GASTEIGER

@<TRIPOS>ATOM
      1 C          -5.2673    1.4698   -1.4220 C.3     1  UNL1       -0.0397
      2 C          -4.2656    0.6417   -0.6728 C.ar    1  UNL1       -0.0504
      3 C          -4.3523   -0.7549   -0.6798 C.ar    1  UNL1       -0.0578
      4 C          -3.4005   -1.5274   -0.0085 C.ar    1  UNL1       -0.0481
      5 C          -2.3398   -0.9139    0.6624 C.ar    1  UNL1        0.0079
      6 S          -1.1104   -1.8751    1.5245 S.3     1  UNL1       -0.1237
      7 C          -0.3694   -2.7922    0.1178 C.3     1  UNL1        0.0139
      8 C           0.4205   -1.8919   -0.8327 C.3     1  UNL1        0.0212
      9 N           1.4750   -1.1551   -0.1580 N.am    1  UNL1       -0.3106
     10 C           2.4662   -0.5284   -0.8850 C.2     1  UNL1        0.2441
     11 O           2.5941   -0.6555   -2.0975 O.2     1  UNL1       -0.2702
     12 C           3.3780    0.3685   -0.1202 C.ar    1  UNL1        0.0367
     13 C           3.6245    0.1876    1.2474 C.ar    1  UNL1       -0.0496
     14 C           4.4869    1.0550    1.9227 C.ar    1  UNL1       -0.0610
     15 C           5.1097    2.0975    1.2364 C.ar    1  UNL1       -0.0617
     16 C           4.8797    2.2724   -0.1277 C.ar    1  UNL1       -0.0610
     17 C           4.0193    1.4077   -0.8064 C.ar    1  UNL1       -0.0496
     18 C          -2.2510    0.4801    0.6722 C.ar    1  UNL1       -0.0481
     19 C          -3.2019    1.2529    0.0002 C.ar    1  UNL1       -0.0578
     20 H          -4.9291    1.6253   -2.4510 H       1  UNL1        0.0278
     21 H          -6.2452    0.9773   -1.4411 H       1  UNL1        0.0278
     22 H          -5.4045    2.4449   -0.9429 H       1  UNL1        0.0278
     23 H          -5.1662   -1.2516   -1.2037 H       1  UNL1        0.0621
     24 H          -3.5033   -2.6095   -0.0114 H       1  UNL1        0.0629
     25 H           0.3038   -3.5394    0.5523 H       1  UNL1        0.0395
     26 H          -1.1473   -3.3354   -0.4275 H       1  UNL1        0.0395
     27 H           0.8746   -2.5052   -1.6197 H       1  UNL1        0.0470
     28 H          -0.2293   -1.1635   -1.3305 H       1  UNL1        0.0470
     29 H           1.2363   -0.7667    0.7464 H       1  UNL1        0.1490
     30 H           3.1765   -0.6363    1.7954 H       1  UNL1        0.0625
     31 H           4.6812    0.9120    2.9830 H       1  UNL1        0.0618
     32 H           5.7832    2.7693    1.7632 H       1  UNL1        0.0618
     33 H           5.3725    3.0788   -0.6651 H       1  UNL1        0.0618
     34 H           3.8474    1.5456   -1.8722 H       1  UNL1        0.0625
     35 H          -1.4392    0.9792    1.1955 H       1  UNL1        0.0629
     36 H          -3.1071    2.3366    0.0085 H       1  UNL1        0.0621
@<TRIPOS>BOND
     1     1     2    1
     2     2     3   ar
     3     3     4   ar
     4     4     5   ar
     5     5     6    1
     6     6     7    1
     7     7     8    1
     8     8     9    1
     9     9    10   am
    10    10    11    2
    11    10    12    1
    12    12    13   ar
    13    13    14   ar
    14    14    15   ar
    15    15    16   ar
    16    16    17   ar
    17     5    18   ar
    18    18    19   ar
    19    19     2   ar
    20    17    12   ar
    21     1    20    1
    22     1    21    1
    23     1    22    1
    24     3    23    1
    25     4    24    1
    26     7    25    1
    27     7    26    1
    28     8    27    1
    29     8    28    1
    30     9    29    1
    31    13    30    1
    32    14    31    1
    33    15    32    1
    34    16    33    1
    35    17    34    1
    36    18    35    1
    37    19    36    1
