@<TRIPOS>MOLECULE
*****
 43 49 0 0 0
SMALL
GASTEIGER

@<TRIPOS>ATOM
      1 SI         -5.2011    1.2506   -2.6650 Si      1  UNL1        0.0000
      2 C          -5.8990   -0.4600   -2.3593 C.2     1  UNL1        0.0000
      3 C          -5.0566   -1.1886   -1.6039 C.ar    1  UNL1        0.0000
      4 C          -5.2829   -2.5555   -1.1808 C.ar    1  UNL1        0.0000
      5 C          -4.3482   -3.1635   -0.4269 C.ar    1  UNL1        0.0000
      6 C          -3.1168   -2.4876   -0.0207 C.ar    1  UNL1        0.0000
      7 C          -2.8300   -1.2115   -0.3727 C.ar    1  UNL1        0.0000
      8 C          -1.5660   -0.6312    0.1044 C.ar    1  UNL1        0.0000
      9 C          -1.5486    0.2656    1.1736 C.ar    1  UNL1        0.0000
     10 N          -0.4344    0.8575    1.6732 N.ar    1  UNL1        0.0000
     11 C           0.7435    0.5475    1.0783 C.ar    1  UNL1        0.0000
     12 C           1.9038    1.1846    1.6240 C.ar    1  UNL1        0.0000
     13 S           2.0506    2.3087    2.9536 S.2     1  UNL1        0.0000
     14 C           3.7781    2.4042    2.7379 C.ar    1  UNL1        0.0000
     15 C           4.8975    3.0632    3.3231 C.ar    1  UNL1        0.0000
     16 C           5.9925    2.6443    2.5990 C.ar    1  UNL1        0.0000
     17 N           5.5909    1.7747    1.6194 N.ar    1  UNL1        0.0000
     18 C           4.2290    1.6258    1.7067 C.ar    1  UNL1        0.0000
     19 C           3.1642    0.9539    1.1027 C.ar    1  UNL1        0.0000
     20 C           3.3316    0.0662    0.0042 C.ar    1  UNL1        0.0000
     21 C           4.4258   -0.3448   -0.6970 C.ar    1  UNL1        0.0000
     22 N           3.9340   -1.2191   -1.6480 N.ar    1  UNL1        0.0000
     23 C           2.5597   -1.3369   -1.5281 C.ar    1  UNL1        0.0000
     24 C           2.1557   -0.5304   -0.4868 C.ar    1  UNL1        0.0000
     25 C           0.8320   -0.3531   -0.0204 C.ar    1  UNL1        0.0000
     26 C          -0.3513   -0.9448   -0.5070 C.ar    1  UNL1        0.0000
     27 C          -3.8094   -0.4963   -1.1971 C.ar    1  UNL1        0.0000
     28 C          -3.7026    0.7690   -1.6517 C.2     1  UNL1        0.0000
     29 H          -6.0094    2.3108   -2.0161 H       1  UNL1        0.0000
     30 H          -4.8711    1.4776   -4.0924 H       1  UNL1        0.0000
     31 H          -6.8525   -0.7632   -2.7608 H       1  UNL1        0.0000
     32 H          -6.1933   -3.0650   -1.4748 H       1  UNL1        0.0000
     33 H          -4.4889   -4.1870   -0.0932 H       1  UNL1        0.0000
     34 H          -2.4353   -3.0692    0.5956 H       1  UNL1        0.0000
     35 H          -2.4704    0.5453    1.6789 H       1  UNL1        0.0000
     36 H           4.8921    3.7486    4.1591 H       1  UNL1        0.0000
     37 H           7.0397    2.8979    2.7026 H       1  UNL1        0.0000
     38 H           6.1670    1.3062    0.9331 H       1  UNL1        0.0000
     39 H           5.4823   -0.1328   -0.6427 H       1  UNL1        0.0000
     40 H           4.4964   -1.7080   -2.3333 H       1  UNL1        0.0000
     41 H           2.0143   -1.9857   -2.2001 H       1  UNL1        0.0000
     42 H          -0.3213   -1.6302   -1.3482 H       1  UNL1        0.0000
     43 H          -2.8916    1.4619   -1.4915 H       1  UNL1        0.0000
@<TRIPOS>BOND
     1     1     2    1
     2     2     3    2
     3     3     4   ar
     4     4     5   ar
     5     5     6   ar
     6     6     7   ar
     7     7     8    1
     8     8     9   ar
     9     9    10   ar
    10    10    11   ar
    11    11    12   ar
    12    12    13   ar
    13    13    14   ar
    14    14    15   ar
    15    15    16   ar
    16    16    17   ar
    17    17    18   ar
    18    18    19   ar
    19    19    20   ar
    20    20    21   ar
    21    21    22   ar
    22    22    23   ar
    23    23    24   ar
    24    24    25   ar
    25    25    26   ar
    26     7    27   ar
    27    27    28    2
    28    28     1    1
    29    27     3   ar
    30    26     8   ar
    31    25    11   ar
    32    19    12   ar
    33    24    20   ar
    34    18    14   ar
    35     1    29    1
    36     1    30    1
    37     2    31    1
    38     4    32    1
    39     5    33    1
    40     6    34    1
    41     9    35    1
    42    15    36    1
    43    16    37    1
    44    17    38    1
    45    21    39    1
    46    22    40    1
    47    23    41    1
    48    26    42    1
    49    28    43    1
