@<TRIPOS>MOLECULE
*****
 33 35 0 0 0
SMALL
GASTEIGER

@<TRIPOS>ATOM
      1 C           4.8275   -0.2024   -1.0776 C.3     1  UNL1       -0.0397
      2 C           3.4408   -0.5728   -0.6393 C.ar    1  UNL1       -0.0498
      3 C           3.2025   -1.8030   -0.0179 C.ar    1  UNL1       -0.0569
      4 C           1.9264   -2.1599    0.4319 C.ar    1  UNL1       -0.0375
      5 C           0.8906   -1.2380    0.2462 C.ar    1  UNL1        0.0470
      6 N          -0.4398   -1.3179    0.5947 N.ar    1  UNL1       -0.3571
      7 C          -1.0917   -0.1753    0.2169 C.ar    1  UNL1        0.0321
      8 C          -0.1669    0.6718   -0.3638 C.ar    1  UNL1       -0.0184
      9 C           1.0900    0.0046   -0.3578 C.ar    1  UNL1        0.0034
     10 C           2.3861    0.3423   -0.7977 C.ar    1  UNL1       -0.0494
     11 C          -0.5170    2.0404   -0.8450 C.3     1  UNL1       -0.0254
     12 C          -2.0425    2.2264   -0.9486 C.3     1  UNL1       -0.0479
     13 C          -2.7868    1.6322    0.2628 C.3     1  UNL1       -0.0362
     14 C          -2.5590    0.1073    0.3819 C.3     1  UNL1        0.0756
     15 C          -3.0918   -0.4417    1.7054 C.2     1  UNL1        0.2193
     16 N          -3.2756   -1.8026    1.7357 N.am    1  UNL1       -0.3288
     17 O          -3.3464    0.2292    2.6991 O.2     1  UNL1       -0.2753
     18 H           4.7977    0.4687   -1.9425 H       1  UNL1        0.0278
     19 H           5.3933   -1.0910   -1.3765 H       1  UNL1        0.0278
     20 H           5.3572    0.2965   -0.2603 H       1  UNL1        0.0278
     21 H           4.0216   -2.5051    0.1265 H       1  UNL1        0.0621
     22 H           1.7555   -3.1169    0.9133 H       1  UNL1        0.0638
     23 H          -0.8583   -2.0998    1.0807 H       1  UNL1        0.1656
     24 H           2.5614    1.3103   -1.2582 H       1  UNL1        0.0627
     25 H          -0.1117    2.7738   -0.1371 H       1  UNL1        0.0314
     26 H          -0.0570    2.2356   -1.8200 H       1  UNL1        0.0314
     27 H          -2.2734    3.2935   -1.0424 H       1  UNL1        0.0269
     28 H          -2.4075    1.7396   -1.8623 H       1  UNL1        0.0269
     29 H          -2.4485    2.1469    1.1721 H       1  UNL1        0.0276
     30 H          -3.8609    1.8338    0.1718 H       1  UNL1        0.0276
     31 H          -3.1012   -0.3868   -0.4355 H       1  UNL1        0.0458
     32 H          -3.4701   -2.2985    0.8755 H       1  UNL1        0.1449
     33 H          -3.7447   -2.1415    2.5680 H       1  UNL1        0.1449
@<TRIPOS>BOND
     1     1     2    1
     2     2     3   ar
     3     3     4   ar
     4     4     5   ar
     5     5     6   ar
     6     6     7   ar
     7     7     8   ar
     8     8     9   ar
     9     9    10   ar
    10     8    11    1
    11    11    12    1
    12    12    13    1
    13    13    14    1
    14    14    15    1
    15    15    16   am
    16    15    17    2
    17    10     2   ar
    18     9     5   ar
    19    14     7    1
    20     1    18    1
    21     1    19    1
    22     1    20    1
    23     3    21    1
    24     4    22    1
    25     6    23    1
    26    10    24    1
    27    11    25    1
    28    11    26    1
    29    12    27    1
    30    12    28    1
    31    13    29    1
    32    13    30    1
    33    14    31    1
    34    16    32    1
    35    16    33    1
