@<TRIPOS>MOLECULE
*****
 38 40 0 0 0
SMALL
GASTEIGER

@<TRIPOS>ATOM
      1 C          -4.1979   -2.2935   -1.9199 C.3     1  UNL1       -0.0397
      2 C          -4.0753   -1.1132   -1.0009 C.ar    1  UNL1       -0.0498
      3 C          -5.1787   -0.6802   -0.2592 C.ar    1  UNL1       -0.0569
      4 C          -5.0840    0.3961    0.6294 C.ar    1  UNL1       -0.0375
      5 C          -3.8399    1.0220    0.7610 C.ar    1  UNL1        0.0467
      6 N          -3.4615    2.0827    1.5497 N.ar    1  UNL1       -0.3604
      7 C          -2.1343    2.3609    1.3646 C.ar    1  UNL1        0.0060
      8 C          -1.6281    1.4676    0.4405 C.ar    1  UNL1       -0.0209
      9 C          -0.2186    1.4073   -0.0518 C.3     1  UNL1       -0.0101
     10 C           0.6276    0.3940    0.7183 C.3     1  UNL1        0.0159
     11 N           1.9829    0.3146    0.1937 N.am    1  UNL1       -0.3110
     12 C           2.9965   -0.2268    0.9613 C.2     1  UNL1        0.2455
     13 O           2.8542   -0.5688    2.1289 O.2     1  UNL1       -0.2701
     14 C           4.3035   -0.4186    0.2893 C.ar    1  UNL1        0.0547
     15 C           4.7143    0.3255   -0.8197 C.ar    1  UNL1       -0.0467
     16 C           5.9648    0.0766   -1.3843 C.ar    1  UNL1       -0.0429
     17 C           6.7629   -0.9047   -0.8165 C.ar    1  UNL1        0.0276
     18 N           6.4014   -1.6333    0.2610 N.ar    1  UNL1       -0.2625
     19 C           5.1828   -1.3675    0.7968 C.ar    1  UNL1        0.0397
     20 C          -2.7113    0.6146    0.0512 C.ar    1  UNL1        0.0031
     21 C          -2.8340   -0.4747   -0.8377 C.ar    1  UNL1       -0.0494
     22 H          -3.5016   -2.2077   -2.7608 H       1  UNL1        0.0278
     23 H          -3.9815   -3.2167   -1.3737 H       1  UNL1        0.0278
     24 H          -5.2070   -2.3585   -2.3402 H       1  UNL1        0.0278
     25 H          -6.1372   -1.1847   -0.3672 H       1  UNL1        0.0621
     26 H          -5.9484    0.7247    1.1968 H       1  UNL1        0.0638
     27 H          -4.0793    2.5782    2.1772 H       1  UNL1        0.1653
     28 H          -1.6610    3.1674    1.9091 H       1  UNL1        0.0810
     29 H          -0.2153    1.1582   -1.1207 H       1  UNL1        0.0329
     30 H           0.2419    2.4008    0.0250 H       1  UNL1        0.0329
     31 H           0.6692    0.6573    1.7820 H       1  UNL1        0.0465
     32 H           0.1964   -0.6116    0.6482 H       1  UNL1        0.0465
     33 H           2.0829    0.2713   -0.8114 H       1  UNL1        0.1490
     34 H           4.0936    1.1133   -1.2345 H       1  UNL1        0.0626
     35 H           6.3144    0.6414   -2.2418 H       1  UNL1        0.0633
     36 H           7.7452   -1.1329   -1.2212 H       1  UNL1        0.0829
     37 H           4.9269   -1.9642    1.6695 H       1  UNL1        0.0837
     38 H          -1.9665   -0.8170   -1.3943 H       1  UNL1        0.0627
@<TRIPOS>BOND
     1     1     2    1
     2     2     3   ar
     3     3     4   ar
     4     4     5   ar
     5     5     6   ar
     6     6     7   ar
     7     7     8   ar
     8     8     9    1
     9     9    10    1
    10    10    11    1
    11    11    12   am
    12    12    13    2
    13    12    14    1
    14    14    15   ar
    15    15    16   ar
    16    16    17   ar
    17    17    18   ar
    18    18    19   ar
    19     8    20   ar
    20    20    21   ar
    21    21     2   ar
    22    20     5   ar
    23    19    14   ar
    24     1    22    1
    25     1    23    1
    26     1    24    1
    27     3    25    1
    28     4    26    1
    29     6    27    1
    30     7    28    1
    31     9    29    1
    32     9    30    1
    33    10    31    1
    34    10    32    1
    35    11    33    1
    36    15    34    1
    37    16    35    1
    38    17    36    1
    39    19    37    1
    40    21    38    1
