@<TRIPOS>MOLECULE
*****
 39 41 0 0 0
SMALL
GASTEIGER

@<TRIPOS>ATOM
      1 C          -5.4987    1.7590   -0.3259 C.3     1  UNL1       -0.0396
      2 C          -4.1758    1.0499   -0.3620 C.ar    1  UNL1       -0.0485
      3 C          -3.0017    1.7648   -0.5978 C.ar    1  UNL1       -0.0581
      4 C          -1.7529    1.1261   -0.6064 C.ar    1  UNL1       -0.0517
      5 C          -1.6590   -0.2626   -0.3578 C.ar    1  UNL1        0.0105
      6 C          -0.5880   -1.2292   -0.2863 C.ar    1  UNL1        0.0466
      7 C           0.8714   -1.0506   -0.4432 C.2     1  UNL1        0.1793
      8 O           1.6004   -2.0305   -0.6137 O.2     1  UNL1       -0.2906
      9 C           1.4330    0.3796   -0.3838 C.3     1  UNL1        0.0621
     10 N           2.9008    0.4307   -0.2346 N.3     1  UNL1       -0.2951
     11 C           3.4109    1.7994   -0.3073 C.3     1  UNL1       -0.0006
     12 C           4.8309    1.6600    0.2158 C.3     1  UNL1       -0.0390
     13 C           4.7907    0.4572    1.1516 C.3     1  UNL1       -0.0390
     14 C           3.3683   -0.0788    1.0570 C.3     1  UNL1       -0.0006
     15 C          -1.1867   -2.4613   -0.0285 C.ar    1  UNL1        0.0245
     16 C          -0.5949   -3.8175    0.1396 C.3     1  UNL1       -0.0237
     17 N          -2.5379   -2.2679    0.0708 N.ar    1  UNL1       -0.3575
     18 C          -2.8533   -0.9470   -0.1225 C.ar    1  UNL1        0.0476
     19 C          -4.1103   -0.3256   -0.1084 C.ar    1  UNL1       -0.0349
     20 H          -5.7041    2.1154    0.6882 H       1  UNL1        0.0278
     21 H          -6.3089    1.0913   -0.6376 H       1  UNL1        0.0278
     22 H          -5.5024    2.6142   -1.0100 H       1  UNL1        0.0278
     23 H          -3.0441    2.8362   -0.7848 H       1  UNL1        0.0620
     24 H          -0.8762    1.7295   -0.8138 H       1  UNL1        0.0624
     25 H           0.9562    0.9169    0.4440 H       1  UNL1        0.0508
     26 H           1.1659    0.8576   -1.3331 H       1  UNL1        0.0508
     27 H           2.8411    2.4795    0.3389 H       1  UNL1        0.0427
     28 H           3.3953    2.1929   -1.3285 H       1  UNL1        0.0427
     29 H           5.1639    2.5666    0.7310 H       1  UNL1        0.0278
     30 H           5.5292    1.4653   -0.6069 H       1  UNL1        0.0278
     31 H           5.5161   -0.2953    0.8214 H       1  UNL1        0.0278
     32 H           5.0421    0.7377    2.1797 H       1  UNL1        0.0278
     33 H           3.3571   -1.1712    1.1131 H       1  UNL1        0.0427
     34 H           2.7706    0.3178    1.8877 H       1  UNL1        0.0427
     35 H          -0.1381   -4.1536   -0.7965 H       1  UNL1        0.0292
     36 H           0.1708   -3.8085    0.9218 H       1  UNL1        0.0292
     37 H          -1.3531   -4.5542    0.4256 H       1  UNL1        0.0292
     38 H          -3.2171   -2.9940    0.2532 H       1  UNL1        0.1656
     39 H          -5.0113   -0.8997    0.0880 H       1  UNL1        0.0641
@<TRIPOS>BOND
     1     1     2    1
     2     2     3   ar
     3     3     4   ar
     4     4     5   ar
     5     5     6   ar
     6     6     7    1
     7     7     8    2
     8     7     9    1
     9     9    10    1
    10    10    11    1
    11    11    12    1
    12    12    13    1
    13    13    14    1
    14     6    15   ar
    15    15    16    1
    16    15    17   ar
    17    17    18   ar
    18    18    19   ar
    19    19     2   ar
    20    18     5   ar
    21    14    10    1
    22     1    20    1
    23     1    21    1
    24     1    22    1
    25     3    23    1
    26     4    24    1
    27     9    25    1
    28     9    26    1
    29    11    27    1
    30    11    28    1
    31    12    29    1
    32    12    30    1
    33    13    31    1
    34    13    32    1
    35    14    33    1
    36    14    34    1
    37    16    35    1
    38    16    36    1
    39    16    37    1
    40    17    38    1
    41    19    39    1
