@<TRIPOS>MOLECULE
*****
 22 23 0 0 0
SMALL
GASTEIGER

@<TRIPOS>ATOM
      1 C           3.3333    0.1056    0.2092 C.3     1  UNL1        0.0220
      2 C           1.8955   -0.2619    0.0288 C.ar    1  UNL1        0.1930
      3 C           1.4984   -1.5481   -0.3526 C.ar    1  UNL1        0.0069
      4 C           0.1481   -1.8453   -0.5086 C.ar    1  UNL1       -0.0422
      5 C          -0.8292   -0.8691   -0.2880 C.ar    1  UNL1        0.0515
      6 C          -2.1966   -1.1556   -0.4419 C.ar    1  UNL1       -0.0480
      7 C          -3.1642   -0.1720   -0.2187 C.ar    1  UNL1       -0.0573
      8 C          -2.7821    1.1115    0.1612 C.ar    1  UNL1       -0.0135
      9 C          -1.4322    1.4064    0.3165 C.ar    1  UNL1        0.1907
     10 O          -1.1118    2.6860    0.6920 O.3     1  UNL1       -0.5014
     11 C          -0.4344    0.4338    0.0980 C.ar    1  UNL1        0.2681
     12 N           0.9407    0.7321    0.2556 N.ar    1  UNL1       -0.1648
     13 O           1.3066    1.9174    0.6072 O.co2   1  UNL1       -0.6191
     14 H           3.9905   -0.7463    0.0061 H       1  UNL1        0.0337
     15 H           3.5167    0.4303    1.2382 H       1  UNL1        0.0337
     16 H           3.6092    0.9109   -0.4788 H       1  UNL1        0.0337
     17 H           2.2419   -2.3225   -0.5293 H       1  UNL1        0.0680
     18 H          -0.1378   -2.8535   -0.8062 H       1  UNL1        0.0628
     19 H          -2.5233   -2.1510   -0.7381 H       1  UNL1        0.0626
     20 H          -4.2188   -0.4076   -0.3414 H       1  UNL1        0.0619
     21 H          -3.5289    1.8811    0.3364 H       1  UNL1        0.0656
     22 H          -0.1216    2.7177    0.7542 H       1  UNL1        0.2924
@<TRIPOS>UNITY_ATOM_ATTR
12 1
charge 1
13 1
charge -1
@<TRIPOS>BOND
     1     1     2    1
     2     2     3   ar
     3     3     4   ar
     4     4     5   ar
     5     5     6   ar
     6     6     7   ar
     7     7     8   ar
     8     8     9   ar
     9     9    10    1
    10     9    11   ar
    11    11    12   ar
    12    12    13    1
    13    12     2   ar
    14    11     5   ar
    15     1    14    1
    16     1    15    1
    17     1    16    1
    18     3    17    1
    19     4    18    1
    20     6    19    1
    21     7    20    1
    22     8    21    1
    23    10    22    1
