@<TRIPOS>MOLECULE
*****
 38 40 0 0 0
SMALL
GASTEIGER

@<TRIPOS>ATOM
      1 C          -4.1360   -2.9092   -0.3851 C.3     1  UNL1       -0.0397
      2 C          -2.6651   -2.6189   -0.3858 C.ar    1  UNL1       -0.0497
      3 C          -1.7362   -3.6427   -0.5543 C.ar    1  UNL1       -0.0568
      4 C          -0.3691   -3.3501   -0.5970 C.ar    1  UNL1       -0.0353
      5 C           0.1126   -2.0525   -0.4813 C.ar    1  UNL1        0.0767
      6 N           1.4339   -1.8536   -0.5452 N.ar    1  UNL1       -0.2145
      7 C           1.8864   -0.6004   -0.4632 C.ar    1  UNL1        0.2163
      8 N           3.2639   -0.4592   -0.5629 N.pl3   1  UNL1       -0.3113
      9 C           3.8145    0.6312    0.2241 C.3     1  UNL1        0.0350
     10 C           5.3434    0.6470    0.1183 C.3     1  UNL1        0.0597
     11 O           5.9124    1.6506    0.9547 O.3     1  UNL1       -0.3935
     12 N           1.1069    0.4655   -0.2857 N.ar    1  UNL1       -0.2139
     13 C          -0.2258    0.2580   -0.2006 C.ar    1  UNL1        0.0837
     14 C          -0.9980    1.4919    0.0221 C.ar    1  UNL1        0.0011
     15 C          -1.7351    1.6919    1.2022 C.ar    1  UNL1       -0.0525
     16 C          -2.4632    2.8674    1.4035 C.ar    1  UNL1       -0.0611
     17 C          -2.4579    3.8654    0.4316 C.ar    1  UNL1       -0.0617
     18 C          -1.7204    3.6932   -0.7374 C.ar    1  UNL1       -0.0611
     19 C          -0.9929    2.5176   -0.9377 C.ar    1  UNL1       -0.0525
     20 C          -0.8057   -1.0139   -0.3111 C.ar    1  UNL1        0.0267
     21 C          -2.1969   -1.3059   -0.2801 C.ar    1  UNL1       -0.0476
     22 H          -4.5316   -2.8408   -1.4031 H       1  UNL1        0.0278
     23 H          -4.3367   -3.9124    0.0056 H       1  UNL1        0.0278
     24 H          -4.6730   -2.1993    0.2528 H       1  UNL1        0.0278
     25 H          -2.0618   -4.6751   -0.6608 H       1  UNL1        0.0621
     26 H           0.3416   -4.1627   -0.7340 H       1  UNL1        0.0639
     27 H           3.6446   -1.3813   -0.3789 H       1  UNL1        0.1490
     28 H           3.5320    0.5304    1.2803 H       1  UNL1        0.0484
     29 H           3.4346    1.6023   -0.1181 H       1  UNL1        0.0484
     30 H           5.6533    0.8483   -0.9125 H       1  UNL1        0.0573
     31 H           5.7678   -0.3203    0.4087 H       1  UNL1        0.0573
     32 H           5.6749    1.4393    1.8738 H       1  UNL1        0.2095
     33 H          -1.7372    0.9306    1.9799 H       1  UNL1        0.0624
     34 H          -3.0272    3.0064    2.3222 H       1  UNL1        0.0618
     35 H          -3.0201    4.7823    0.5893 H       1  UNL1        0.0618
     36 H          -1.7037    4.4753   -1.4921 H       1  UNL1        0.0618
     37 H          -0.4101    2.4006   -1.8500 H       1  UNL1        0.0624
     38 H          -2.9190   -0.4969   -0.1827 H       1  UNL1        0.0627
@<TRIPOS>BOND
     1     1     2    1
     2     2     3   ar
     3     3     4   ar
     4     4     5   ar
     5     5     6   ar
     6     6     7   ar
     7     7     8    1
     8     8     9    1
     9     9    10    1
    10    10    11    1
    11     7    12   ar
    12    12    13   ar
    13    13    14    1
    14    14    15   ar
    15    15    16   ar
    16    16    17   ar
    17    17    18   ar
    18    18    19   ar
    19    13    20   ar
    20    20    21   ar
    21    21     2   ar
    22    20     5   ar
    23    19    14   ar
    24     1    22    1
    25     1    23    1
    26     1    24    1
    27     3    25    1
    28     4    26    1
    29     8    27    1
    30     9    28    1
    31     9    29    1
    32    10    30    1
    33    10    31    1
    34    11    32    1
    35    15    33    1
    36    16    34    1
    37    17    35    1
    38    18    36    1
    39    19    37    1
    40    21    38    1
