@<TRIPOS>MOLECULE
*****
 45 46 0 0 0
SMALL
GASTEIGER

@<TRIPOS>ATOM
      1 C           2.7736   -0.0255    3.3702 C.3     1  UNL1       -0.0397
      2 C           2.8620    0.1119    1.8804 C.ar    1  UNL1       -0.0497
      3 C           4.0970    0.1894    1.2408 C.ar    1  UNL1       -0.0568
      4 C           4.1615    0.2765   -0.1540 C.ar    1  UNL1       -0.0353
      5 C           3.0202    0.2823   -0.9459 C.ar    1  UNL1        0.0760
      6 N           3.1596    0.3609   -2.2733 N.ar    1  UNL1       -0.2353
      7 C           2.0327    0.3537   -2.9940 C.ar    1  UNL1        0.1187
      8 N           0.7852    0.2842   -2.5196 N.ar    1  UNL1       -0.2201
      9 C           0.6570    0.2078   -1.1807 C.ar    1  UNL1        0.1323
     10 N          -0.6574    0.1703   -0.6214 N.pl3   1  UNL1       -0.3141
     11 C          -1.1995    1.5502   -0.6150 C.3     1  UNL1        0.0158
     12 C          -1.6759    1.9459    0.7973 C.3     1  UNL1       -0.0309
     13 C          -2.8453    1.0897    1.2848 C.3     1  UNL1       -0.0612
     14 C          -2.0782    3.4230    0.8135 C.3     1  UNL1       -0.0612
     15 C          -1.5182   -0.7904   -1.3504 C.3     1  UNL1        0.0158
     16 C          -1.1161   -2.2567   -1.0868 C.3     1  UNL1       -0.0309
     17 C          -1.9288   -3.1875   -1.9898 C.3     1  UNL1       -0.0612
     18 C          -1.3250   -2.6463    0.3782 C.3     1  UNL1       -0.0612
     19 C           1.7714    0.2000   -0.3182 C.ar    1  UNL1        0.0406
     20 C           1.7057    0.1031    1.0950 C.ar    1  UNL1       -0.0463
     21 H           1.8621    0.4466    3.7517 H       1  UNL1        0.0278
     22 H           2.7682   -1.0837    3.6490 H       1  UNL1        0.0278
     23 H           3.6220    0.4647    3.8593 H       1  UNL1        0.0278
     24 H           5.0204    0.1794    1.8156 H       1  UNL1        0.0621
     25 H           5.1345    0.3365   -0.6369 H       1  UNL1        0.0639
     26 H           2.1426    0.4127   -4.0713 H       1  UNL1        0.1048
     27 H          -0.4459    2.2838   -0.9369 H       1  UNL1        0.0467
     28 H          -2.0286    1.6442   -1.3297 H       1  UNL1        0.0467
     29 H          -0.8466    1.8196    1.5035 H       1  UNL1        0.0311
     30 H          -3.1968    1.4337    2.2636 H       1  UNL1        0.0233
     31 H          -2.5493    0.0427    1.3977 H       1  UNL1        0.0233
     32 H          -3.6892    1.1352    0.5884 H       1  UNL1        0.0233
     33 H          -2.3877    3.7315    1.8178 H       1  UNL1        0.0233
     34 H          -2.9104    3.6157    0.1279 H       1  UNL1        0.0233
     35 H          -1.2380    4.0589    0.5153 H       1  UNL1        0.0233
     36 H          -2.5556   -0.6582   -1.0158 H       1  UNL1        0.0467
     37 H          -1.5284   -0.5787   -2.4281 H       1  UNL1        0.0467
     38 H          -0.0569   -2.4037   -1.3299 H       1  UNL1        0.0311
     39 H          -1.6419   -4.2324   -1.8306 H       1  UNL1        0.0233
     40 H          -3.0024   -3.0968   -1.7922 H       1  UNL1        0.0233
     41 H          -1.7567   -2.9521   -3.0454 H       1  UNL1        0.0233
     42 H          -2.3729   -2.5296    0.6749 H       1  UNL1        0.0233
     43 H          -1.0431   -3.6916    0.5442 H       1  UNL1        0.0233
     44 H          -0.7137   -2.0316    1.0453 H       1  UNL1        0.0233
     45 H           0.7329    0.0110    1.5742 H       1  UNL1        0.0628
@<TRIPOS>BOND
     1     1     2    1
     2     2     3   ar
     3     3     4   ar
     4     4     5   ar
     5     5     6   ar
     6     6     7   ar
     7     7     8   ar
     8     8     9   ar
     9     9    10    1
    10    10    11    1
    11    11    12    1
    12    12    13    1
    13    12    14    1
    14    10    15    1
    15    15    16    1
    16    16    17    1
    17    16    18    1
    18     9    19   ar
    19    19    20   ar
    20    20     2   ar
    21    19     5   ar
    22     1    21    1
    23     1    22    1
    24     1    23    1
    25     3    24    1
    26     4    25    1
    27     7    26    1
    28    11    27    1
    29    11    28    1
    30    12    29    1
    31    13    30    1
    32    13    31    1
    33    13    32    1
    34    14    33    1
    35    14    34    1
    36    14    35    1
    37    15    36    1
    38    15    37    1
    39    16    38    1
    40    17    39    1
    41    17    40    1
    42    17    41    1
    43    18    42    1
    44    18    43    1
    45    18    44    1
    46    20    45    1
