@<TRIPOS>MOLECULE
*****
 37 39 0 0 0
SMALL
GASTEIGER

@<TRIPOS>ATOM
      1 C          -6.9184   -0.3841   -0.8736 C.3     1  UNL1       -0.0397
      2 C          -5.6256    0.1963   -0.3799 C.ar    1  UNL1       -0.0495
      3 C          -5.5720    1.5154    0.0908 C.ar    1  UNL1       -0.0553
      4 C          -4.3626    2.0668    0.5223 C.ar    1  UNL1       -0.0184
      5 C          -3.1956    1.3062    0.4752 C.ar    1  UNL1        0.1384
      6 O          -2.0411    1.9006    0.9144 O.2     1  UNL1       -0.4621
      7 C          -0.8830    1.1626    0.8629 C.ar    1  UNL1        0.1033
      8 C          -0.7446   -0.0918    0.4064 C.ar    1  UNL1        0.0573
      9 C           0.5114   -0.8228    0.4143 C.2     1  UNL1       -0.0443
     10 C           1.7175   -0.2950    0.1495 C.2     1  UNL1       -0.0135
     11 C           2.9218   -1.1696    0.1632 C.2     1  UNL1        0.1896
     12 O           2.8334   -2.3925    0.2542 O.2     1  UNL1       -0.2872
     13 C           4.2689   -0.5543    0.0149 C.ar    1  UNL1        0.0630
     14 C           4.5206    0.7834    0.3552 C.ar    1  UNL1       -0.0474
     15 C           5.7995    1.3255    0.1895 C.ar    1  UNL1       -0.0609
     16 C           6.8366    0.5378   -0.3075 C.ar    1  UNL1       -0.0583
     17 C           6.6034   -0.7981   -0.6276 C.ar    1  UNL1       -0.0195
     18 C           5.3317   -1.3422   -0.4571 C.ar    1  UNL1        0.1276
     19 O           5.1985   -2.6685   -0.7754 O.3     1  UNL1       -0.5061
     20 C          -1.9880   -0.7814   -0.0520 C.ar    1  UNL1        0.1996
     21 O          -1.9842   -1.9398   -0.4530 O.2     1  UNL1       -0.2864
     22 C          -3.2360    0.0010   -0.0044 C.ar    1  UNL1        0.0648
     23 C          -4.4450   -0.5563   -0.4368 C.ar    1  UNL1       -0.0444
     24 H          -7.0331   -0.1851   -1.9435 H       1  UNL1        0.0278
     25 H          -6.9485   -1.4662   -0.7087 H       1  UNL1        0.0278
     26 H          -7.7703    0.0495   -0.3393 H       1  UNL1        0.0278
     27 H          -6.4751    2.1219    0.1259 H       1  UNL1        0.0621
     28 H          -4.3343    3.0886    0.8917 H       1  UNL1        0.0654
     29 H          -0.0694    1.7549    1.2628 H       1  UNL1        0.1037
     30 H           0.4193   -1.8906    0.6229 H       1  UNL1        0.0627
     31 H           1.8336    0.7475   -0.1137 H       1  UNL1        0.0656
     32 H           3.7484    1.4218    0.7727 H       1  UNL1        0.0626
     33 H           5.9898    2.3632    0.4549 H       1  UNL1        0.0618
     34 H           7.8306    0.9595   -0.4358 H       1  UNL1        0.0619
     35 H           7.4117   -1.4206   -1.0027 H       1  UNL1        0.0654
     36 H           4.3126   -2.9666   -0.4673 H       1  UNL1        0.2922
     37 H          -4.4626   -1.5768   -0.8163 H       1  UNL1        0.0628
@<TRIPOS>BOND
     1     1     2    1
     2     2     3   ar
     3     3     4   ar
     4     4     5   ar
     5     5     6   ar
     6     6     7   ar
     7     7     8   ar
     8     8     9    1
     9     9    10    2
    10    10    11    1
    11    11    12    2
    12    11    13    1
    13    13    14   ar
    14    14    15   ar
    15    15    16   ar
    16    16    17   ar
    17    17    18   ar
    18    18    19    1
    19     8    20   ar
    20    20    21    2
    21    20    22   ar
    22    22    23   ar
    23    23     2   ar
    24    22     5   ar
    25    18    13   ar
    26     1    24    1
    27     1    25    1
    28     1    26    1
    29     3    27    1
    30     4    28    1
    31     7    29    1
    32     9    30    1
    33    10    31    1
    34    14    32    1
    35    15    33    1
    36    16    34    1
    37    17    35    1
    38    19    36    1
    39    23    37    1
