@<TRIPOS>MOLECULE
*****
 39 41 0 0 0
SMALL
GASTEIGER

@<TRIPOS>ATOM
      1 C          -5.6318   -1.4421    0.0960 C.3     1  UNL1       -0.0621
      2 C          -4.6083   -0.3102    0.0381 C.3     1  UNL1       -0.0396
      3 C          -4.5126    0.4134    1.3994 C.3     1  UNL1       -0.0457
      4 C          -3.5652    1.6229    1.3394 C.3     1  UNL1       -0.0209
      5 C          -2.3091    1.2703    0.6061 C.ar    1  UNL1       -0.0063
      6 S          -0.9289    2.2579    0.6584 S.2     1  UNL1       -0.0884
      7 C          -0.0527    1.2138   -0.3891 C.ar    1  UNL1        0.0744
      8 C           1.3219    1.5585   -0.7371 C.2     1  UNL1        0.2510
      9 O           1.8364    2.6536   -0.5174 O.2     1  UNL1       -0.2696
     10 N           2.0421    0.5405   -1.3359 N.am    1  UNL1       -0.3068
     11 C           3.4538    0.6721   -1.6111 C.3     1  UNL1        0.0372
     12 C           4.2723    0.0089   -0.5318 C.ar    1  UNL1       -0.0301
     13 C           4.7650   -1.2945   -0.7039 C.ar    1  UNL1       -0.0544
     14 C           5.5023   -1.9081    0.3103 C.ar    1  UNL1       -0.0261
     15 C           5.7412   -1.2239    1.4965 C.ar    1  UNL1        0.1234
     16 F           6.4473   -1.8169    2.4681 F       1  UNL1       -0.2055
     17 C           5.2559    0.0632    1.6900 C.ar    1  UNL1       -0.0261
     18 C           4.5196    0.6794    0.6776 C.ar    1  UNL1       -0.0544
     19 C          -0.8347    0.1369   -0.7772 C.ar    1  UNL1       -0.0390
     20 C          -2.1430    0.1655   -0.2024 C.ar    1  UNL1       -0.0362
     21 C          -3.2277   -0.8519   -0.3972 C.3     1  UNL1       -0.0243
     22 H          -6.6225   -1.0560    0.3583 H       1  UNL1        0.0233
     23 H          -5.7128   -1.9417   -0.8750 H       1  UNL1        0.0233
     24 H          -5.3533   -2.1935    0.8426 H       1  UNL1        0.0233
     25 H          -4.9493    0.4179   -0.7109 H       1  UNL1        0.0301
     26 H          -4.1528   -0.2921    2.1604 H       1  UNL1        0.0271
     27 H          -5.5039    0.7513    1.7239 H       1  UNL1        0.0271
     28 H          -3.3456    1.9634    2.3577 H       1  UNL1        0.0318
     29 H          -4.0638    2.4469    0.8140 H       1  UNL1        0.0318
     30 H           1.6645   -0.3937   -1.3137 H       1  UNL1        0.1494
     31 H           3.6399    0.1916   -2.5781 H       1  UNL1        0.0512
     32 H           3.7415    1.7244   -1.7140 H       1  UNL1        0.0512
     33 H           4.5807   -1.8378   -1.6279 H       1  UNL1        0.0622
     34 H           5.8910   -2.9136    0.1848 H       1  UNL1        0.0646
     35 H           5.4498    0.5781    2.6254 H       1  UNL1        0.0646
     36 H           4.1331    1.6862    0.8338 H       1  UNL1        0.0622
     37 H          -0.5010   -0.6405   -1.4525 H       1  UNL1        0.0633
     38 H          -3.2682   -1.1578   -1.4496 H       1  UNL1        0.0316
     39 H          -2.9708   -1.7424    0.1909 H       1  UNL1        0.0316
@<TRIPOS>BOND
     1     1     2    1
     2     2     3    1
     3     3     4    1
     4     4     5    1
     5     5     6   ar
     6     6     7   ar
     7     7     8    1
     8     8     9    2
     9     8    10   am
    10    10    11    1
    11    11    12    1
    12    12    13   ar
    13    13    14   ar
    14    14    15   ar
    15    15    16    1
    16    15    17   ar
    17    17    18   ar
    18     7    19   ar
    19    19    20   ar
    20    20    21    1
    21    21     2    1
    22    20     5   ar
    23    18    12   ar
    24     1    22    1
    25     1    23    1
    26     1    24    1
    27     2    25    1
    28     3    26    1
    29     3    27    1
    30     4    28    1
    31     4    29    1
    32    10    30    1
    33    11    31    1
    34    11    32    1
    35    13    33    1
    36    14    34    1
    37    17    35    1
    38    18    36    1
    39    19    37    1
    40    21    38    1
    41    21    39    1
