@<TRIPOS>MOLECULE
*****
 45 46 0 0 0
SMALL
GASTEIGER

@<TRIPOS>ATOM
      1 C           0.0864    4.0765   -0.1372 C.3     1  UNL1       -0.0277
      2 C           0.4961    2.6263    0.0985 C.3     1  UNL1        0.1006
      3 C           1.5054    2.1481   -0.9609 C.3     1  UNL1       -0.0155
      4 C           2.9409    2.0185   -0.4345 C.3     1  UNL1       -0.0430
      5 C           3.1549    0.8427    0.5220 C.3     1  UNL1        0.0059
      6 C           2.9264   -0.5153   -0.1282 C.2     1  UNL1        0.1334
      7 O           3.1492   -0.6964   -1.3265 O.2     1  UNL1       -0.2974
      8 C           2.5342   -1.6539    0.8020 C.3     1  UNL1        0.0061
      9 C           1.9673   -2.8888    0.0983 C.3     1  UNL1       -0.0429
     10 C           0.4809   -2.7884   -0.2842 C.3     1  UNL1       -0.0341
     11 C           0.2010   -1.8343   -1.4112 C.2     1  UNL1       -0.0834
     12 C          -0.8434   -1.0013   -1.5440 C.2     1  UNL1       -0.0575
     13 C          -1.9702   -0.8845   -0.6118 C.ar    1  UNL1       -0.0044
     14 C          -3.1070   -1.6691   -0.8564 C.ar    1  UNL1       -0.0120
     15 C          -4.2063   -1.5822   -0.0050 C.ar    1  UNL1        0.1209
     16 O          -5.3268   -2.3315   -0.2156 O.3     1  UNL1       -0.5066
     17 C          -4.2031   -0.7260    1.0914 C.ar    1  UNL1        0.0222
     18 C          -3.0770    0.0546    1.3441 C.ar    1  UNL1        0.1349
     19 O          -3.0666    0.9043    2.4153 O.3     1  UNL1       -0.5058
     20 C          -1.9644   -0.0212    0.4980 C.ar    1  UNL1        0.1076
     21 C          -0.7652    0.7616    0.8195 C.2     1  UNL1        0.3436
     22 O           0.0351    0.4443    1.6834 O.2     1  UNL1       -0.2448
     23 O          -0.7000    1.8289   -0.0155 O.3     1  UNL1       -0.4581
     24 H          -0.6355    4.3938    0.6229 H       1  UNL1        0.0265
     25 H          -0.4096    4.1937   -1.1066 H       1  UNL1        0.0265
     26 H           0.9510    4.7449   -0.0978 H       1  UNL1        0.0265
     27 H           0.9090    2.5635    1.1114 H       1  UNL1        0.0731
     28 H           1.1873    1.1949   -1.3963 H       1  UNL1        0.0301
     29 H           1.5215    2.8580   -1.7982 H       1  UNL1        0.0301
     30 H           3.6137    1.9064   -1.2937 H       1  UNL1        0.0270
     31 H           3.2299    2.9489    0.0680 H       1  UNL1        0.0270
     32 H           2.5080    0.9422    1.3964 H       1  UNL1        0.0342
     33 H           4.1894    0.8504    0.8835 H       1  UNL1        0.0342
     34 H           1.8185   -1.2914    1.5442 H       1  UNL1        0.0342
     35 H           3.4475   -1.9390    1.3393 H       1  UNL1        0.0342
     36 H           2.5681   -3.1446   -0.7828 H       1  UNL1        0.0272
     37 H           2.0644   -3.7360    0.7890 H       1  UNL1        0.0272
     38 H           0.1539   -3.7831   -0.6111 H       1  UNL1        0.0308
     39 H          -0.1049   -2.5405    0.6076 H       1  UNL1        0.0308
     40 H           0.9403   -1.8311   -2.2141 H       1  UNL1        0.0572
     41 H          -0.9034   -0.3569   -2.4198 H       1  UNL1        0.0621
     42 H          -3.1200   -2.3423   -1.7098 H       1  UNL1        0.0660
     43 H          -5.2025   -2.8672   -1.0180 H       1  UNL1        0.2921
     44 H          -5.0796   -0.6812    1.7301 H       1  UNL1        0.0691
     45 H          -3.8945    0.8037    2.9143 H       1  UNL1        0.2922
@<TRIPOS>BOND
     1     1     2    1
     2     2     3    1
     3     3     4    1
     4     4     5    1
     5     5     6    1
     6     6     7    2
     7     6     8    1
     8     8     9    1
     9     9    10    1
    10    10    11    1
    11    11    12    2
    12    12    13    1
    13    13    14   ar
    14    14    15   ar
    15    15    16    1
    16    15    17   ar
    17    17    18   ar
    18    18    19    1
    19    18    20   ar
    20    20    21    1
    21    21    22    2
    22    21    23    1
    23    23     2    1
    24    20    13   ar
    25     1    24    1
    26     1    25    1
    27     1    26    1
    28     2    27    1
    29     3    28    1
    30     3    29    1
    31     4    30    1
    32     4    31    1
    33     5    32    1
    34     5    33    1
    35     8    34    1
    36     8    35    1
    37     9    36    1
    38     9    37    1
    39    10    38    1
    40    10    39    1
    41    11    40    1
    42    12    41    1
    43    14    42    1
    44    16    43    1
    45    17    44    1
    46    19    45    1
