@<TRIPOS>MOLECULE
*****
 32 33 0 0 0
SMALL
GASTEIGER

@<TRIPOS>ATOM
      1 C          -1.4910    2.3559   -1.1825 C.3     1  UNL1       -0.0379
      2 C          -2.1734    1.0886   -0.7387 C.ar    1  UNL1       -0.0284
      3 C          -3.5811    1.0810   -0.8131 C.ar    1  UNL1       -0.0570
      4 C          -4.3163   -0.0669   -0.5363 C.ar    1  UNL1       -0.0606
      5 C          -3.6551   -1.2386   -0.1903 C.ar    1  UNL1       -0.0460
      6 C          -2.2547   -1.2574   -0.0827 C.ar    1  UNL1        0.0802
      7 C          -1.5751   -2.5324    0.2836 C.2     1  UNL1        0.3386
      8 O          -0.3693   -2.7193    0.2769 O.2     1  UNL1       -0.2451
      9 O          -2.4233   -3.5136    0.6399 O.3     1  UNL1       -0.4771
     10 C          -1.4986   -0.0753   -0.3074 C.ar    1  UNL1        0.0506
     11 N          -0.0869   -0.1394   -0.1360 N.am    1  UNL1       -0.2805
     12 C           0.7172    0.8380    0.4208 C.2     1  UNL1        0.2483
     13 O           0.3385    1.9000    0.8999 O.2     1  UNL1       -0.2699
     14 C           2.1698    0.4935    0.5034 C.ar    1  UNL1        0.0372
     15 C           2.7711   -0.4145   -0.3826 C.ar    1  UNL1       -0.0469
     16 C           4.1346   -0.7004   -0.2712 C.ar    1  UNL1       -0.0257
     17 C           4.8915   -0.0755    0.7142 C.ar    1  UNL1        0.1234
     18 F           6.1978   -0.3520    0.8157 F       1  UNL1       -0.2055
     19 C           4.3142    0.8361    1.5902 C.ar    1  UNL1       -0.0257
     20 C           2.9523    1.1250    1.4829 C.ar    1  UNL1       -0.0469
     21 H          -1.4325    3.0712   -0.3575 H       1  UNL1        0.0278
     22 H          -2.0558    2.8279   -1.9955 H       1  UNL1        0.0278
     23 H          -0.4951    2.1624   -1.5909 H       1  UNL1        0.0278
     24 H          -4.1130    1.9827   -1.1146 H       1  UNL1        0.0621
     25 H          -5.4008   -0.0510   -0.6100 H       1  UNL1        0.0618
     26 H          -4.2430   -2.1337   -0.0014 H       1  UNL1        0.0626
     27 H          -1.8450   -4.2731    0.8618 H       1  UNL1        0.2954
     28 H           0.2855   -1.0865   -0.0447 H       1  UNL1        0.1552
     29 H           2.2008   -0.8923   -1.1750 H       1  UNL1        0.0626
     30 H           4.6120   -1.4005   -0.9500 H       1  UNL1        0.0646
     31 H           4.9249    1.3177    2.3474 H       1  UNL1        0.0646
     32 H           2.5000    1.8422    2.1658 H       1  UNL1        0.0626
@<TRIPOS>BOND
     1     1     2    1
     2     2     3   ar
     3     3     4   ar
     4     4     5   ar
     5     5     6   ar
     6     6     7    1
     7     7     8    2
     8     7     9    1
     9     6    10   ar
    10    10    11    1
    11    11    12   am
    12    12    13    2
    13    12    14    1
    14    14    15   ar
    15    15    16   ar
    16    16    17   ar
    17    17    18    1
    18    17    19   ar
    19    19    20   ar
    20    10     2   ar
    21    20    14   ar
    22     1    21    1
    23     1    22    1
    24     1    23    1
    25     3    24    1
    26     4    25    1
    27     5    26    1
    28     9    27    1
    29    11    28    1
    30    15    29    1
    31    16    30    1
    32    19    31    1
    33    20    32    1
