@<TRIPOS>MOLECULE
*****
 35 40 0 0 0
SMALL
GASTEIGER

@<TRIPOS>ATOM
      1 SI         -4.7393   -1.2689   -0.5761 Si      1  UNL1        0.0000
      2 C          -6.2400   -0.4322    0.1723 C.2     1  UNL1        0.0000
      3 C          -5.8833    0.5887    0.9717 C.2     1  UNL1        0.0000
      4 C          -4.4520    0.8239    1.0849 C.2     1  UNL1        0.0000
      5 C          -3.6579   -0.0021    0.3689 C.2     1  UNL1        0.0000
      6 C          -2.2193    0.0141    0.3214 C.2     1  UNL1        0.0000
      7 C          -1.3991    0.1274    1.3873 C.2     1  UNL1        0.0000
      8 C           0.0276    0.1373    1.0498 C.ar    1  UNL1        0.0000
      9 C           0.3900    0.0376   -0.3275 C.ar    1  UNL1        0.0000
     10 SI         -1.2405   -0.0823   -1.3079 Si      1  UNL1        0.0000
     11 C           1.7351    0.0355   -0.8000 C.ar    1  UNL1        0.0000
     12 C           2.1057   -0.0620   -2.1565 C.ar    1  UNL1        0.0000
     13 N           3.3633   -0.0702   -2.6659 N.ar    1  UNL1        0.0000
     14 C           4.3436    0.0287   -1.7378 C.ar    1  UNL1        0.0000
     15 C           5.7463    0.0521   -1.8997 C.ar    1  UNL1        0.0000
     16 C           6.2737    0.1662   -0.6337 C.ar    1  UNL1        0.0000
     17 O           5.2838    0.2145    0.2977 O.2     1  UNL1        0.0000
     18 C           4.0991    0.1305   -0.3745 C.ar    1  UNL1        0.0000
     19 C           2.8045    0.1378    0.1399 C.ar    1  UNL1        0.0000
     20 C           2.5065    0.2410    1.5336 C.ar    1  UNL1        0.0000
     21 N           3.3727    0.3450    2.5567 N.ar    1  UNL1        0.0000
     22 S           2.4792    0.4330    3.9482 S.2     1  UNL1        0.0000
     23 N           0.9406    0.3443    3.3366 N.ar    1  UNL1        0.0000
     24 C           1.0652    0.2408    2.0031 C.ar    1  UNL1        0.0000
     25 H          -4.5427   -2.6549   -0.0851 H       1  UNL1        0.0000
     26 H          -4.6434   -1.0738   -2.0448 H       1  UNL1        0.0000
     27 H          -7.2429   -0.7672   -0.0407 H       1  UNL1        0.0000
     28 H          -6.5906    1.2093    1.5086 H       1  UNL1        0.0000
     29 H          -4.0822    1.6251    1.7145 H       1  UNL1        0.0000
     30 H          -1.7274    0.2045    2.4172 H       1  UNL1        0.0000
     31 H          -1.3716   -1.4017   -1.9751 H       1  UNL1        0.0000
     32 H          -1.4336    1.1007   -2.1816 H       1  UNL1        0.0000
     33 H           1.3503   -0.1426   -2.9363 H       1  UNL1        0.0000
     34 H           6.2978   -0.0070   -2.8257 H       1  UNL1        0.0000
     35 H           7.2806    0.2233   -0.2435 H       1  UNL1        0.0000
@<TRIPOS>BOND
     1     1     2    1
     2     2     3    2
     3     3     4    1
     4     4     5    2
     5     5     6    1
     6     6     7    2
     7     7     8    1
     8     8     9   ar
     9     9    10    1
    10     9    11   ar
    11    11    12   ar
    12    12    13   ar
    13    13    14   ar
    14    14    15   ar
    15    15    16   ar
    16    16    17   ar
    17    17    18   ar
    18    18    19   ar
    19    19    20   ar
    20    20    21   ar
    21    21    22   ar
    22    22    23   ar
    23    23    24   ar
    24     5     1    1
    25    10     6    1
    26    19    11   ar
    27    24    20   ar
    28    24     8   ar
    29    18    14   ar
    30     1    25    1
    31     1    26    1
    32     2    27    1
    33     3    28    1
    34     4    29    1
    35     7    30    1
    36    10    31    1
    37    10    32    1
    38    12    33    1
    39    15    34    1
    40    16    35    1
