@<TRIPOS>MOLECULE
*****
 32 33 0 0 0
SMALL
GASTEIGER

@<TRIPOS>ATOM
      1 C          -3.3603    0.7997    1.7895 C.3     1  UNL1       -0.0397
      2 C          -2.5771    0.1531    0.6848 C.ar    1  UNL1       -0.0501
      3 C          -3.1726   -0.8133   -0.1309 C.ar    1  UNL1       -0.0588
      4 C          -2.4326   -1.4427   -1.1289 C.ar    1  UNL1       -0.0612
      5 C          -1.0899   -1.1151   -1.3161 C.ar    1  UNL1       -0.0566
      6 C          -0.4625   -0.1504   -0.5091 C.ar    1  UNL1       -0.0240
      7 C           1.0119    0.1641   -0.7472 C.3     1  UNL1        0.0689
      8 C           1.4622    1.5968   -0.4451 C.3     1  UNL1        0.0696
      9 C           0.7836    2.5549   -1.3746 C.2     1  UNL1        0.3070
     10 O           0.6724    2.4368   -2.5830 O.2     1  UNL1       -0.2509
     11 O           0.3039    3.6418   -0.7420 O.3     1  UNL1       -0.4806
     12 N           1.8601   -0.8009   -0.0265 N.ar    1  UNL1       -0.3455
     13 C           1.9506   -0.9454    1.3364 C.ar    1  UNL1        0.0053
     14 C           2.8813   -1.9257    1.6025 C.ar    1  UNL1       -0.0442
     15 C           3.3778   -2.3854    0.3611 C.ar    1  UNL1       -0.0442
     16 C           2.7356   -1.6733   -0.6278 C.ar    1  UNL1        0.0053
     17 C          -1.2218    0.4665    0.5003 C.ar    1  UNL1       -0.0537
     18 H          -4.4246    0.8513    1.5369 H       1  UNL1        0.0278
     19 H          -3.2440    0.2274    2.7149 H       1  UNL1        0.0278
     20 H          -3.0179    1.8257    1.9609 H       1  UNL1        0.0278
     21 H          -4.2160   -1.0859    0.0099 H       1  UNL1        0.0620
     22 H          -2.9001   -2.1953   -1.7586 H       1  UNL1        0.0618
     23 H          -0.5306   -1.6270   -2.0973 H       1  UNL1        0.0621
     24 H           1.2092   -0.0174   -1.8141 H       1  UNL1        0.0583
     25 H           1.2634    1.8783    0.5948 H       1  UNL1        0.0401
     26 H           2.5429    1.7099   -0.5958 H       1  UNL1        0.0401
     27 H          -0.1050    4.1767   -1.4554 H       1  UNL1        0.2951
     28 H           1.3446   -0.3526    2.0085 H       1  UNL1        0.0809
     29 H           3.1690   -2.2728    2.5864 H       1  UNL1        0.0632
     30 H           4.1232   -3.1541    0.2037 H       1  UNL1        0.0632
     31 H           2.8310   -1.7220   -1.7048 H       1  UNL1        0.0809
     32 H          -0.7676    1.1964    1.1665 H       1  UNL1        0.0624
@<TRIPOS>BOND
     1     1     2    1
     2     2     3   ar
     3     3     4   ar
     4     4     5   ar
     5     5     6   ar
     6     6     7    1
     7     7     8    1
     8     8     9    1
     9     9    10    2
    10     9    11    1
    11     7    12    1
    12    12    13   ar
    13    13    14   ar
    14    14    15   ar
    15    15    16   ar
    16     6    17   ar
    17    17     2   ar
    18    16    12   ar
    19     1    18    1
    20     1    19    1
    21     1    20    1
    22     3    21    1
    23     4    22    1
    24     5    23    1
    25     7    24    1
    26     8    25    1
    27     8    26    1
    28    11    27    1
    29    13    28    1
    30    14    29    1
    31    15    30    1
    32    16    31    1
    33    17    32    1
