@<TRIPOS>MOLECULE
*****
 35 36 0 0 0
SMALL
GASTEIGER

@<TRIPOS>ATOM
      1 C          -2.8483   -1.6810    2.2772 C.3     1  UNL1       -0.0379
      2 C          -3.3558   -0.9478    1.0622 C.ar    1  UNL1       -0.0290
      3 C          -4.7176   -1.0788    0.7425 C.ar    1  UNL1       -0.0571
      4 C          -5.2468   -0.4516   -0.3777 C.ar    1  UNL1       -0.0611
      5 C          -4.4276    0.3417   -1.1724 C.ar    1  UNL1       -0.0571
      6 C          -3.0644    0.5206   -0.8674 C.ar    1  UNL1       -0.0290
      7 C          -2.3132    1.4990   -1.7311 C.3     1  UNL1       -0.0379
      8 C          -2.5076   -0.1739    0.2289 C.ar    1  UNL1        0.0393
      9 N          -1.1381   -0.0940    0.5902 N.am    1  UNL1       -0.2822
     10 C          -0.0586   -0.1048   -0.2869 C.2     1  UNL1        0.2550
     11 O          -0.1172   -0.2504   -1.5025 O.2     1  UNL1       -0.2717
     12 C           1.2723    0.0425    0.4557 C.3     1  UNL1        0.1687
     13 O           2.3718    0.1749   -0.4402 O.3     1  UNL1       -0.4505
     14 C           3.5876    0.2462    0.1764 C.2     1  UNL1        0.3651
     15 O           3.7258    0.2049    1.3973 O.2     1  UNL1       -0.2430
     16 C           4.7002    0.3864   -0.7460 C.ar    1  UNL1        0.2316
     17 N           4.5444    0.5287   -2.0701 N.ar    1  UNL1       -0.0402
     18 O           5.8327    0.6437   -2.5754 O.2     1  UNL1       -0.2401
     19 N           6.7790    0.5796   -1.5621 N.ar    1  UNL1       -0.0334
     20 C           6.0819    0.4136   -0.4412 C.ar    1  UNL1        0.1944
     21 N           6.6317    0.2933    0.7837 N.pl3   1  UNL1       -0.3385
     22 H          -2.0451   -2.3709    1.9987 H       1  UNL1        0.0278
     23 H          -2.4822   -0.9690    3.0238 H       1  UNL1        0.0278
     24 H          -3.6367   -2.2758    2.7510 H       1  UNL1        0.0278
     25 H          -5.3755   -1.6849    1.3619 H       1  UNL1        0.0621
     26 H          -6.2985   -0.5680   -0.6251 H       1  UNL1        0.0618
     27 H          -4.8636    0.8483   -2.0319 H       1  UNL1        0.0621
     28 H          -1.5003    1.9854   -1.1846 H       1  UNL1        0.0278
     29 H          -1.9275    1.0044   -2.6268 H       1  UNL1        0.0278
     30 H          -2.9764    2.3098   -2.0556 H       1  UNL1        0.0278
     31 H          -0.9175   -0.3803    1.5342 H       1  UNL1        0.1549
     32 H           1.2110    0.9356    1.0889 H       1  UNL1        0.0796
     33 H           1.4048   -0.8531    1.0748 H       1  UNL1        0.0796
     34 H           6.0663    0.3861    1.6253 H       1  UNL1        0.1439
     35 H           7.6089    0.5395    0.9041 H       1  UNL1        0.1439
@<TRIPOS>BOND
     1     1     2    1
     2     2     3   ar
     3     3     4   ar
     4     4     5   ar
     5     5     6   ar
     6     6     7    1
     7     6     8   ar
     8     8     9    1
     9     9    10   am
    10    10    11    2
    11    10    12    1
    12    12    13    1
    13    13    14    1
    14    14    15    2
    15    14    16    1
    16    16    17   ar
    17    17    18   ar
    18    18    19   ar
    19    19    20   ar
    20    20    21    1
    21     8     2   ar
    22    20    16   ar
    23     1    22    1
    24     1    23    1
    25     1    24    1
    26     3    25    1
    27     4    26    1
    28     5    27    1
    29     7    28    1
    30     7    29    1
    31     7    30    1
    32     9    31    1
    33    12    32    1
    34    12    33    1
    35    21    34    1
    36    21    35    1
