@<TRIPOS>MOLECULE
*****
 37 38 0 0 0
SMALL
GASTEIGER

@<TRIPOS>ATOM
      1 C           2.2425   -2.4647    1.1465 C.3     1  UNL1       -0.0366
      2 C           2.5759   -1.3078    0.2434 C.ar    1  UNL1       -0.0138
      3 C           3.6105   -1.4658   -0.6928 C.ar    1  UNL1       -0.0557
      4 C           3.9313   -0.4411   -1.5774 C.ar    1  UNL1       -0.0611
      5 C           3.2261    0.7573   -1.5349 C.ar    1  UNL1       -0.0557
      6 C           2.2013    0.9556   -0.5954 C.ar    1  UNL1       -0.0138
      7 C           1.4754    2.2748   -0.6062 C.3     1  UNL1       -0.0366
      8 C           1.8677   -0.0825    0.3057 C.ar    1  UNL1        0.0974
      9 N           0.7964    0.0725    1.2257 N.pl3   1  UNL1       -0.2053
     10 C          -0.5190    0.1404    0.8244 C.cat   1  UNL1        0.3819
     11 N          -0.9470    0.0828   -0.3864 N.2     1  UNL1       -0.0699
     12 C          -2.3975    0.1611   -0.6114 C.3     1  UNL1        0.2693
     13 C          -2.8449   -1.1877   -1.1838 C.3     1  UNL1        0.0113
     14 C          -2.6306    1.2677   -1.6449 C.3     1  UNL1        0.0113
     15 N          -3.2648    0.4595    0.5433 N.2     1  UNL1       -0.0704
     16 C          -2.6862    0.4898    1.6854 C.cat   1  UNL1        0.3748
     17 N          -3.3824    0.7476    2.8204 N.pl3   1  UNL1       -0.2512
     18 N          -1.3692    0.2809    1.8751 N.pl3   1  UNL1       -0.1502
     19 H           2.4622   -2.2071    2.1874 H       1  UNL1        0.0279
     20 H           1.1854   -2.7326    1.0497 H       1  UNL1        0.0279
     21 H           2.8276   -3.3557    0.8948 H       1  UNL1        0.0279
     22 H           4.1636   -2.4006   -0.7509 H       1  UNL1        0.0621
     23 H           4.7234   -0.5797   -2.3082 H       1  UNL1        0.0618
     24 H           3.4779    1.5443   -2.2424 H       1  UNL1        0.0621
     25 H           0.6022    2.2225   -1.2628 H       1  UNL1        0.0279
     26 H           1.1586    2.5681    0.3995 H       1  UNL1        0.0279
     27 H           2.1303    3.0747   -0.9696 H       1  UNL1        0.0279
     28 H           0.9226   -0.5119    2.0399 H       1  UNL1        0.2512
     29 H          -2.6838   -1.9919   -0.4563 H       1  UNL1        0.0301
     30 H          -3.9113   -1.1808   -1.4360 H       1  UNL1        0.0301
     31 H          -2.2815   -1.4446   -2.0880 H       1  UNL1        0.0301
     32 H          -2.0594    1.0849   -2.5622 H       1  UNL1        0.0301
     33 H          -2.3154    2.2406   -1.2495 H       1  UNL1        0.0301
     34 H          -3.6902    1.3484   -1.9125 H       1  UNL1        0.0301
     35 H          -4.3732    0.8039    2.5949 H       1  UNL1        0.2412
     36 H          -3.2406    0.0516    3.5424 H       1  UNL1        0.2412
     37 H          -0.9842    0.7253    2.6929 H       1  UNL1        0.2568
@<TRIPOS>BOND
     1     1     2    1
     2     2     3   ar
     3     3     4   ar
     4     4     5   ar
     5     5     6   ar
     6     6     7    1
     7     6     8   ar
     8     8     9    1
     9     9    10    1
    10    10    11    2
    11    11    12    1
    12    12    13    1
    13    12    14    1
    14    12    15    1
    15    15    16    2
    16    16    17    1
    17    16    18    1
    18     8     2   ar
    19    18    10    1
    20     1    19    1
    21     1    20    1
    22     1    21    1
    23     3    22    1
    24     4    23    1
    25     5    24    1
    26     7    25    1
    27     7    26    1
    28     7    27    1
    29     9    28    1
    30    13    29    1
    31    13    30    1
    32    13    31    1
    33    14    32    1
    34    14    33    1
    35    14    34    1
    36    17    35    1
    37    17    36    1
    38    18    37    1
