@<TRIPOS>MOLECULE
*****
 44 46 0 0 0
SMALL
GASTEIGER

@<TRIPOS>ATOM
      1 C          -6.3793   -0.3424    0.7924 C.3     1  UNL1       -0.0397
      2 C          -5.0021    0.2518    0.7713 C.ar    1  UNL1       -0.0502
      3 C          -4.6789    1.3192    1.6155 C.ar    1  UNL1       -0.0588
      4 C          -3.4067    1.8885    1.5758 C.ar    1  UNL1       -0.0613
      5 C          -2.4501    1.4063    0.6830 C.ar    1  UNL1       -0.0585
      6 C          -2.7588    0.3522   -0.1841 C.ar    1  UNL1       -0.0464
      7 C          -1.7264   -0.1805   -1.1496 C.3     1  UNL1       -0.0161
      8 C          -0.8667   -1.2927   -0.5336 C.3     1  UNL1        0.0483
      9 C          -0.2172   -2.1633   -1.6060 C.3     1  UNL1        0.0360
     10 C           1.1723   -1.6147   -1.7337 C.2     1  UNL1        0.2228
     11 O           1.9597   -1.9509   -2.6051 O.2     1  UNL1       -0.2752
     12 N           1.4069   -0.7597   -0.6941 N.am    1  UNL1       -0.2388
     13 C           2.7354   -0.2200   -0.4028 C.3     1  UNL1        0.0336
     14 C           3.4185   -0.9688    0.7482 C.3     1  UNL1       -0.0338
     15 C           4.8684   -0.5167    0.9392 C.3     1  UNL1       -0.0514
     16 C           5.1103    0.9457    0.5612 C.3     1  UNL1       -0.0529
     17 C           3.8568    1.7927    0.7306 C.3     1  UNL1       -0.0514
     18 C           2.7117    1.3018   -0.1588 C.3     1  UNL1       -0.0338
     19 C           0.3380   -0.7028    0.1590 C.2     1  UNL1        0.2259
     20 O           0.3306   -0.2364    1.2880 O.2     1  UNL1       -0.2748
     21 C          -4.0397   -0.2188   -0.1324 C.ar    1  UNL1       -0.0556
     22 H          -6.3496   -1.4056    0.5316 H       1  UNL1        0.0278
     23 H          -7.0230    0.1799    0.0780 H       1  UNL1        0.0278
     24 H          -6.8232   -0.2659    1.7906 H       1  UNL1        0.0278
     25 H          -5.4146    1.7109    2.3140 H       1  UNL1        0.0620
     26 H          -3.1574    2.7080    2.2450 H       1  UNL1        0.0618
     27 H          -1.4598    1.8569    0.6772 H       1  UNL1        0.0620
     28 H          -1.1080    0.6526   -1.5095 H       1  UNL1        0.0321
     29 H          -2.2594   -0.5564   -2.0328 H       1  UNL1        0.0321
     30 H          -1.4349   -1.9216    0.1605 H       1  UNL1        0.0402
     31 H          -0.7356   -2.1316   -2.5678 H       1  UNL1        0.0366
     32 H          -0.1426   -3.2031   -1.2691 H       1  UNL1        0.0366
     33 H           3.3503   -0.3896   -1.2976 H       1  UNL1        0.0505
     34 H           3.3948   -2.0517    0.5753 H       1  UNL1        0.0283
     35 H           2.8685   -0.7996    1.6825 H       1  UNL1        0.0283
     36 H           5.5358   -1.1488    0.3409 H       1  UNL1        0.0266
     37 H           5.1515   -0.6809    1.9860 H       1  UNL1        0.0266
     38 H           5.4416    1.0005   -0.4835 H       1  UNL1        0.0265
     39 H           5.9280    1.3512    1.1679 H       1  UNL1        0.0265
     40 H           3.5401    1.7609    1.7808 H       1  UNL1        0.0266
     41 H           4.0745    2.8421    0.5016 H       1  UNL1        0.0266
     42 H           1.7664    1.6360    0.2831 H       1  UNL1        0.0283
     43 H           2.7671    1.8041   -1.1336 H       1  UNL1        0.0283
     44 H          -4.2932   -1.0385   -0.8019 H       1  UNL1        0.0623
@<TRIPOS>BOND
     1     1     2    1
     2     2     3   ar
     3     3     4   ar
     4     4     5   ar
     5     5     6   ar
     6     6     7    1
     7     7     8    1
     8     8     9    1
     9     9    10    1
    10    10    11    2
    11    10    12   am
    12    12    13    1
    13    13    14    1
    14    14    15    1
    15    15    16    1
    16    16    17    1
    17    17    18    1
    18    12    19   am
    19    19    20    2
    20     6    21   ar
    21    21     2   ar
    22    19     8    1
    23    18    13    1
    24     1    22    1
    25     1    23    1
    26     1    24    1
    27     3    25    1
    28     4    26    1
    29     5    27    1
    30     7    28    1
    31     7    29    1
    32     8    30    1
    33     9    31    1
    34     9    32    1
    35    13    33    1
    36    14    34    1
    37    14    35    1
    38    15    36    1
    39    15    37    1
    40    16    38    1
    41    16    39    1
    42    17    40    1
    43    17    41    1
    44    18    42    1
    45    18    43    1
    46    21    44    1
