@<TRIPOS>MOLECULE
*****
 34 36 0 0 0
SMALL
GASTEIGER

@<TRIPOS>ATOM
      1 C           6.2743   -0.7390   -0.5871 C.3     1  UNL1       -0.0223
      2 C           5.0309    0.0497   -0.3041 C.ar    1  UNL1        0.0406
      3 C           5.1137    1.4057   -0.0152 C.ar    1  UNL1       -0.0405
      4 C           3.9409    2.1064    0.2432 C.ar    1  UNL1       -0.0566
      5 C           2.7178    1.4405    0.2073 C.ar    1  UNL1       -0.0187
      6 C           2.7118    0.0810   -0.0891 C.ar    1  UNL1        0.1389
      7 N           1.4894   -0.6448   -0.1389 N.ar    1  UNL1       -0.2895
      8 C           1.3818   -1.9873   -0.4108 C.ar    1  UNL1        0.1024
      9 N           0.1367   -2.4042   -0.3861 N.ar    1  UNL1       -0.2307
     10 C          -0.6316   -1.2944   -0.0921 C.ar    1  UNL1        0.1438
     11 C          -2.1016   -1.3632    0.0380 C.2     1  UNL1        0.2681
     12 O          -2.6783   -2.4344    0.1897 O.2     1  UNL1       -0.2681
     13 N          -2.7310   -0.1286   -0.0431 N.am    1  UNL1       -0.2789
     14 C          -4.1119    0.1393    0.0806 C.ar    1  UNL1        0.0520
     15 C          -5.0825   -0.8128    0.3796 C.ar    1  UNL1       -0.0376
     16 C          -6.4214   -0.4310    0.4834 C.ar    1  UNL1       -0.0418
     17 C          -6.7499    0.8994    0.2867 C.ar    1  UNL1        0.0277
     18 N          -5.8435    1.8558   -0.0010 N.ar    1  UNL1       -0.2614
     19 C          -4.5541    1.4515   -0.0969 C.ar    1  UNL1        0.0487
     20 C           0.1997   -0.1944    0.0650 C.ar    1  UNL1        0.0431
     21 N           3.8512   -0.6137   -0.3436 N.ar    1  UNL1       -0.2344
     22 H           6.9459   -0.7090    0.2765 H       1  UNL1        0.0292
     23 H           6.7914   -0.3291   -1.4602 H       1  UNL1        0.0292
     24 H           6.0324   -1.7863   -0.7947 H       1  UNL1        0.0292
     25 H           6.0737    1.9121    0.0101 H       1  UNL1        0.0635
     26 H           3.9805    3.1681    0.4729 H       1  UNL1        0.0619
     27 H           1.8159    2.0029    0.4136 H       1  UNL1        0.0654
     28 H           2.2472   -2.6059   -0.6142 H       1  UNL1        0.1033
     29 H          -2.1472    0.6625   -0.2702 H       1  UNL1        0.1552
     30 H          -4.8375   -1.8578    0.5397 H       1  UNL1        0.0637
     31 H          -7.1884   -1.1625    0.7138 H       1  UNL1        0.0633
     32 H          -7.7793    1.2387    0.3580 H       1  UNL1        0.0829
     33 H          -3.8615    2.2545   -0.3319 H       1  UNL1        0.0848
     34 H          -0.0152    0.8304    0.3216 H       1  UNL1        0.0837
@<TRIPOS>BOND
     1     1     2    1
     2     2     3   ar
     3     3     4   ar
     4     4     5   ar
     5     5     6   ar
     6     6     7    1
     7     7     8   ar
     8     8     9   ar
     9     9    10   ar
    10    10    11    1
    11    11    12    2
    12    11    13   am
    13    13    14    1
    14    14    15   ar
    15    15    16   ar
    16    16    17   ar
    17    17    18   ar
    18    18    19   ar
    19    10    20   ar
    20     6    21   ar
    21    21     2   ar
    22    20     7   ar
    23    19    14   ar
    24     1    22    1
    25     1    23    1
    26     1    24    1
    27     3    25    1
    28     4    26    1
    29     5    27    1
    30     8    28    1
    31    13    29    1
    32    15    30    1
    33    16    31    1
    34    17    32    1
    35    19    33    1
    36    20    34    1
