@<TRIPOS>MOLECULE
*****
 43 45 0 0 0
SMALL
GASTEIGER

@<TRIPOS>ATOM
      1 C           6.2753   -0.0917   -0.1293 C.3     1  UNL1       -0.0394
      2 C           4.9895    0.6975   -0.0802 C.ar    1  UNL1       -0.0458
      3 C           5.0270    2.0683   -0.3848 C.ar    1  UNL1       -0.0585
      4 C           3.8617    2.8318   -0.3766 C.ar    1  UNL1       -0.0597
      5 C           2.6424    2.2299   -0.0728 C.ar    1  UNL1       -0.0402
      6 C           2.5706    0.8624    0.2468 C.ar    1  UNL1        0.0356
      7 N           1.2827    0.2900    0.4461 N.pl3   1  UNL1       -0.2986
      8 C           0.5915   -0.4488   -0.5618 C.ar    1  UNL1        0.1351
      9 N           1.3371   -1.0572   -1.5264 N.ar    1  UNL1       -0.2394
     10 C           0.7197   -1.8417   -2.4354 C.ar    1  UNL1        0.0297
     11 C          -0.6442   -2.0816   -2.4404 C.ar    1  UNL1       -0.0427
     12 C          -1.4209   -1.4643   -1.4630 C.ar    1  UNL1       -0.0449
     13 C          -0.8154   -0.6240   -0.5051 C.ar    1  UNL1        0.0766
     14 C          -1.6291    0.1359    0.5001 C.2     1  UNL1        0.2477
     15 O          -1.0997    0.9994    1.1996 O.2     1  UNL1       -0.2701
     16 N          -2.9838   -0.1260    0.5881 N.am    1  UNL1       -0.3066
     17 C          -3.8183    0.5437    1.5682 C.3     1  UNL1        0.0433
     18 C          -5.2465    0.1906    1.2924 C.ar    1  UNL1        0.0069
     19 C          -6.1623    0.8739    0.5126 C.ar    1  UNL1       -0.0500
     20 C          -7.4301    0.2224    0.4601 C.ar    1  UNL1       -0.0544
     21 C          -7.4418   -0.9395    1.2015 C.ar    1  UNL1       -0.0240
     22 S          -5.9319   -1.2363    1.9537 S.2     1  UNL1       -0.1000
     23 C           3.7546    0.0881    0.2628 C.ar    1  UNL1       -0.0264
     24 C           3.7118   -1.3758    0.6254 C.3     1  UNL1       -0.0377
     25 H           7.0986    0.5132   -0.5262 H       1  UNL1        0.0278
     26 H           6.5520   -0.4281    0.8777 H       1  UNL1        0.0278
     27 H           6.1657   -0.9600   -0.7918 H       1  UNL1        0.0278
     28 H           5.9711    2.5501   -0.6451 H       1  UNL1        0.0620
     29 H           3.9000    3.8871   -0.6267 H       1  UNL1        0.0618
     30 H           1.7347    2.8295   -0.1028 H       1  UNL1        0.0636
     31 H           0.6335    0.9888    0.8277 H       1  UNL1        0.1536
     32 H           1.3770   -2.2874   -3.1787 H       1  UNL1        0.0830
     33 H          -1.0952   -2.7277   -3.1909 H       1  UNL1        0.0633
     34 H          -2.4930   -1.6566   -1.4907 H       1  UNL1        0.0627
     35 H          -3.4530   -0.8070    0.0030 H       1  UNL1        0.1494
     36 H          -3.5007    0.2253    2.5698 H       1  UNL1        0.0517
     37 H          -3.6612    1.6284    1.4886 H       1  UNL1        0.0517
     38 H          -5.9319    1.8017   -0.0010 H       1  UNL1        0.0626
     39 H          -8.2873    0.5867   -0.0930 H       1  UNL1        0.0623
     40 H          -8.2643   -1.6296    1.3390 H       1  UNL1        0.0693
     41 H           2.7593   -1.6647    1.0890 H       1  UNL1        0.0278
     42 H           3.8550   -1.9894   -0.2722 H       1  UNL1        0.0278
     43 H           4.4993   -1.6072    1.3603 H       1  UNL1        0.0278
@<TRIPOS>BOND
     1     1     2    1
     2     2     3   ar
     3     3     4   ar
     4     4     5   ar
     5     5     6   ar
     6     6     7    1
     7     7     8    1
     8     8     9   ar
     9     9    10   ar
    10    10    11   ar
    11    11    12   ar
    12    12    13   ar
    13    13    14    1
    14    14    15    2
    15    14    16   am
    16    16    17    1
    17    17    18    1
    18    18    19   ar
    19    19    20   ar
    20    20    21   ar
    21    21    22   ar
    22     6    23   ar
    23    23    24    1
    24    23     2   ar
    25    13     8   ar
    26    22    18   ar
    27     1    25    1
    28     1    26    1
    29     1    27    1
    30     3    28    1
    31     4    29    1
    32     5    30    1
    33     7    31    1
    34    10    32    1
    35    11    33    1
    36    12    34    1
    37    16    35    1
    38    17    36    1
    39    17    37    1
    40    19    38    1
    41    20    39    1
    42    21    40    1
    43    24    41    1
    44    24    42    1
    45    24    43    1
