@<TRIPOS>MOLECULE
*****
 46 48 0 0 0
SMALL
GASTEIGER

@<TRIPOS>ATOM
      1 C           5.4406    0.2416   -2.1309 C.3     1  UNL1       -0.0397
      2 C           4.6179    0.4292   -0.8906 C.ar    1  UNL1       -0.0487
      3 C           4.1624    1.7013   -0.5242 C.ar    1  UNL1       -0.0587
      4 C           3.4254    1.8776    0.6479 C.ar    1  UNL1       -0.0597
      5 C           3.1448    0.7853    1.4686 C.ar    1  UNL1       -0.0393
      6 C           3.6049   -0.4834    1.1167 C.ar    1  UNL1        0.0483
      7 N           3.2835   -1.5902    1.9507 N.pl3   1  UNL1       -0.2162
      8 S           2.2665   -2.8030    1.3587 S.O2    1  UNL1        0.0723
      9 O           2.8632   -3.4106    0.1884 O.2     1  UNL1       -0.1500
     10 O           1.8917   -3.6035    2.5065 O.2     1  UNL1       -0.1500
     11 C           0.8228   -1.9013    0.8433 C.ar    1  UNL1        0.1085
     12 C           0.6859   -1.5127   -0.4905 C.ar    1  UNL1       -0.0348
     13 C          -0.4526   -0.8101   -0.8890 C.ar    1  UNL1       -0.0564
     14 C          -1.4654   -0.5001    0.0334 C.ar    1  UNL1       -0.0442
     15 C          -2.6967    0.2604   -0.4295 C.3     1  UNL1       -0.0158
     16 C          -3.9425   -0.6484   -0.4686 C.3     1  UNL1       -0.0462
     17 C          -5.2615    0.1216   -0.3510 C.3     1  UNL1       -0.0525
     18 C          -5.1553    1.5284   -0.9229 C.3     1  UNL1       -0.0530
     19 C          -4.0980    2.3623   -0.1967 C.3     1  UNL1       -0.0525
     20 C          -2.9596    1.5272    0.3977 C.3     1  UNL1       -0.0462
     21 C          -1.3199   -0.9231    1.3651 C.ar    1  UNL1       -0.0564
     22 C          -0.1830   -1.6244    1.7715 C.ar    1  UNL1       -0.0348
     23 C           4.3443   -0.6604   -0.0533 C.ar    1  UNL1       -0.0364
     24 H           5.1754    0.9830   -2.8919 H       1  UNL1        0.0278
     25 H           6.5039    0.3435   -1.8935 H       1  UNL1        0.0278
     26 H           5.2673   -0.7476   -2.5676 H       1  UNL1        0.0278
     27 H           4.3796    2.5636   -1.1513 H       1  UNL1        0.0620
     28 H           3.0694    2.8680    0.9202 H       1  UNL1        0.0618
     29 H           2.5610    0.9367    2.3715 H       1  UNL1        0.0636
     30 H           3.1186   -1.4078    2.9385 H       1  UNL1        0.1737
     31 H           1.4585   -1.7448   -1.2203 H       1  UNL1        0.0637
     32 H          -0.5440   -0.5076   -1.9305 H       1  UNL1        0.0621
     33 H          -2.5093    0.5985   -1.4593 H       1  UNL1        0.0349
     34 H          -3.9194   -1.4066    0.3240 H       1  UNL1        0.0271
     35 H          -3.9316   -1.2097   -1.4124 H       1  UNL1        0.0271
     36 H          -5.5505    0.1851    0.7057 H       1  UNL1        0.0265
     37 H          -6.0573   -0.4353   -0.8586 H       1  UNL1        0.0265
     38 H          -4.8990    1.4644   -1.9880 H       1  UNL1        0.0265
     39 H          -6.1250    2.0358   -0.8669 H       1  UNL1        0.0265
     40 H          -4.5686    2.9376    0.6099 H       1  UNL1        0.0265
     41 H          -3.6897    3.0998   -0.8985 H       1  UNL1        0.0265
     42 H          -2.0556    2.1450    0.4666 H       1  UNL1        0.0271
     43 H          -3.2245    1.2572    1.4282 H       1  UNL1        0.0271
     44 H          -2.0997   -0.7193    2.0961 H       1  UNL1        0.0621
     45 H          -0.0955   -1.9541    2.8041 H       1  UNL1        0.0637
     46 H           4.7166   -1.6489   -0.3151 H       1  UNL1        0.0639
@<TRIPOS>BOND
     1     1     2    1
     2     2     3   ar
     3     3     4   ar
     4     4     5   ar
     5     5     6   ar
     6     6     7    1
     7     7     8    1
     8     8     9    2
     9     8    10    2
    10     8    11    1
    11    11    12   ar
    12    12    13   ar
    13    13    14   ar
    14    14    15    1
    15    15    16    1
    16    16    17    1
    17    17    18    1
    18    18    19    1
    19    19    20    1
    20    14    21   ar
    21    21    22   ar
    22     6    23   ar
    23    23     2   ar
    24    22    11   ar
    25    20    15    1
    26     1    24    1
    27     1    25    1
    28     1    26    1
    29     3    27    1
    30     4    28    1
    31     5    29    1
    32     7    30    1
    33    12    31    1
    34    13    32    1
    35    15    33    1
    36    16    34    1
    37    16    35    1
    38    17    36    1
    39    17    37    1
    40    18    38    1
    41    18    39    1
    42    19    40    1
    43    19    41    1
    44    20    42    1
    45    20    43    1
    46    21    44    1
    47    22    45    1
    48    23    46    1
