@<TRIPOS>MOLECULE
*****
 39 40 0 0 0
SMALL
GASTEIGER

@<TRIPOS>ATOM
      1 C          -4.8794   -2.2682    0.3152 C.3     1  UNL1       -0.0396
      2 C          -3.5843   -1.5850    0.6475 C.ar    1  UNL1       -0.0470
      3 C          -2.5190   -2.3150    1.1899 C.ar    1  UNL1       -0.0586
      4 C          -1.3326   -1.6748    1.5560 C.ar    1  UNL1       -0.0581
      5 C          -1.1963   -0.2991    1.3816 C.ar    1  UNL1       -0.0199
      6 C          -2.2460    0.4260    0.8275 C.ar    1  UNL1        0.1215
      7 O          -2.1375    1.7811    0.6720 O.3     1  UNL1       -0.4827
      8 C          -1.5180    2.0976   -0.5723 C.3     1  UNL1        0.1668
      9 C           0.0098    2.2452   -0.5274 C.2     1  UNL1        0.2698
     10 O           0.6481    2.3621    0.5172 O.2     1  UNL1       -0.2703
     11 N           0.5697    2.2294   -1.8156 N.am    1  UNL1       -0.2042
     12 N           1.8883    2.5574   -2.0145 N.2     1  UNL1       -0.1876
     13 C           2.8125    1.8275   -1.4535 C.2     1  UNL1        0.0536
     14 C           2.6593    0.5203   -0.7830 C.ar    1  UNL1        0.0085
     15 C           2.0483   -0.5052   -1.5244 C.ar    1  UNL1       -0.0523
     16 C           1.8796   -1.7739   -0.9700 C.ar    1  UNL1       -0.0611
     17 C           2.3224   -2.0277    0.3248 C.ar    1  UNL1       -0.0609
     18 C           2.9341   -1.0129    1.0647 C.ar    1  UNL1       -0.0472
     19 C           3.1202    0.2690    0.5168 C.ar    1  UNL1        0.0674
     20 C           3.7546    1.2703    1.4064 C.2     1  UNL1        0.3374
     21 O           3.8280    1.1824    2.6201 O.2     1  UNL1       -0.2451
     22 O           4.3528    2.2805    0.7562 O.3     1  UNL1       -0.4771
     23 C          -3.4452   -0.2009    0.4858 C.ar    1  UNL1       -0.0170
     24 H          -5.4989   -2.3466    1.2141 H       1  UNL1        0.0278
     25 H          -4.6999   -3.2727   -0.0808 H       1  UNL1        0.0278
     26 H          -5.4340   -1.7114   -0.4485 H       1  UNL1        0.0278
     27 H          -2.6141   -3.3877    1.3446 H       1  UNL1        0.0620
     28 H          -0.5183   -2.2454    1.9922 H       1  UNL1        0.0619
     29 H          -0.2812    0.2042    1.6939 H       1  UNL1        0.0654
     30 H          -1.7978    1.3830   -1.3595 H       1  UNL1        0.0795
     31 H          -1.9144    3.0729   -0.8791 H       1  UNL1        0.0795
     32 H          -0.0299    2.5972   -2.5490 H       1  UNL1        0.1773
     33 H           3.8509    2.1866   -1.5624 H       1  UNL1        0.0851
     34 H           1.7058   -0.3163   -2.5395 H       1  UNL1        0.0624
     35 H           1.4012   -2.5620   -1.5470 H       1  UNL1        0.0618
     36 H           2.1889   -3.0146    0.7636 H       1  UNL1        0.0618
     37 H           3.2654   -1.2250    2.0809 H       1  UNL1        0.0626
     38 H           4.6761    2.8595    1.4789 H       1  UNL1        0.2954
     39 H          -4.2693    0.3923    0.1008 H       1  UNL1        0.0657
@<TRIPOS>BOND
     1     1     2    1
     2     2     3   ar
     3     3     4   ar
     4     4     5   ar
     5     5     6   ar
     6     6     7    1
     7     7     8    1
     8     8     9    1
     9     9    10    2
    10     9    11   am
    11    11    12    1
    12    12    13    2
    13    13    14    1
    14    14    15   ar
    15    15    16   ar
    16    16    17   ar
    17    17    18   ar
    18    18    19   ar
    19    19    20    1
    20    20    21    2
    21    20    22    1
    22     6    23   ar
    23    23     2   ar
    24    19    14   ar
    25     1    24    1
    26     1    25    1
    27     1    26    1
    28     3    27    1
    29     4    28    1
    30     5    29    1
    31     8    30    1
    32     8    31    1
    33    11    32    1
    34    13    33    1
    35    15    34    1
    36    16    35    1
    37    17    36    1
    38    18    37    1
    39    22    38    1
    40    23    39    1
