@<TRIPOS>MOLECULE
*****
 24 25 0 0 0
SMALL
GASTEIGER

@<TRIPOS>ATOM
      1 C           1.6433   -1.9532   -0.3897 C.3     1  UNL1       -0.0391
      2 C           0.2543   -1.4179   -0.1886 C.ar    1  UNL1       -0.0411
      3 C          -0.7679   -2.3047   -0.1878 C.ar    1  UNL1       -0.0582
      4 C          -2.1527   -1.9278   -0.0053 C.ar    1  UNL1       -0.0609
      5 C          -2.5080   -0.6492    0.1774 C.ar    1  UNL1       -0.0538
      6 C          -1.4882    0.3942    0.1949 C.ar    1  UNL1       -0.0109
      7 C          -1.8765    1.6658    0.3801 C.ar    1  UNL1        0.0105
      8 C          -0.8778    2.7419    0.4034 C.ar    1  UNL1        0.2495
      9 O          -1.2029    3.9113    0.5705 O.2     1  UNL1       -0.2679
     10 N           0.4175    2.3533    0.2286 N.ar    1  UNL1       -0.3259
     11 C           0.8554    1.0536    0.0352 C.ar    1  UNL1        0.0239
     12 C           2.3494    0.9582   -0.1259 C.3     1  UNL1       -0.0238
     13 C          -0.0453    0.0327    0.0083 C.ar    1  UNL1        0.0042
     14 H           2.0968   -1.5433   -1.2959 H       1  UNL1        0.0278
     15 H           2.2751   -1.7473    0.4783 H       1  UNL1        0.0278
     16 H           1.6482   -3.0428   -0.5154 H       1  UNL1        0.0278
     17 H          -0.5872   -3.3678   -0.3282 H       1  UNL1        0.0620
     18 H          -2.8999   -2.7152   -0.0208 H       1  UNL1        0.0618
     19 H          -3.5520   -0.3847    0.3127 H       1  UNL1        0.0624
     20 H          -2.9056    1.9695    0.5184 H       1  UNL1        0.0678
     21 H           1.0831    3.1162    0.2494 H       1  UNL1        0.1686
     22 H           2.6161    0.5597   -1.1081 H       1  UNL1        0.0292
     23 H           2.7947    0.3553    0.6696 H       1  UNL1        0.0292
     24 H           2.8298    1.9420   -0.0611 H       1  UNL1        0.0292
@<TRIPOS>BOND
     1     1     2    1
     2     2     3   ar
     3     3     4   ar
     4     4     5   ar
     5     5     6   ar
     6     6     7   ar
     7     7     8   ar
     8     8     9    2
     9     8    10   ar
    10    10    11   ar
    11    11    12    1
    12    11    13   ar
    13    13     2   ar
    14    13     6   ar
    15     1    14    1
    16     1    15    1
    17     1    16    1
    18     3    17    1
    19     4    18    1
    20     5    19    1
    21     7    20    1
    22    10    21    1
    23    12    22    1
    24    12    23    1
    25    12    24    1
