@<TRIPOS>MOLECULE
*****
 38 40 0 0 0
SMALL
GASTEIGER

@<TRIPOS>ATOM
      1 C           0.5303   -1.4508    2.9519 C.3     1  UNL1       -0.0377
      2 C          -0.3163   -0.2113    3.0689 C.ar    1  UNL1       -0.0244
      3 C          -0.5912    0.3207    4.3401 C.ar    1  UNL1       -0.0568
      4 C          -1.3703    1.4646    4.4712 C.ar    1  UNL1       -0.0608
      5 C          -1.8784    2.0831    3.3341 C.ar    1  UNL1       -0.0525
      6 C          -1.6068    1.5575    2.0602 C.ar    1  UNL1        0.0020
      7 C          -2.1091    2.1636    0.9053 C.ar    1  UNL1       -0.0318
      8 C          -1.8248    1.6217   -0.3506 C.ar    1  UNL1        0.0922
      9 C          -2.3724    2.2476   -1.5151 C.1     1  UNL1        0.1026
     10 N          -2.8207    2.8074   -2.4289 N.1     1  UNL1       -0.1908
     11 C          -1.0339    0.4728   -0.4272 C.ar    1  UNL1        0.1395
     12 N          -0.7035   -0.0986   -1.6755 N.pl3   1  UNL1       -0.3117
     13 C           0.4218    0.6446   -2.3033 C.3     1  UNL1        0.0263
     14 C           1.2154   -0.2456   -3.2872 C.3     1  UNL1        0.0144
     15 N           1.8048   -1.4630   -2.6873 N.3     1  UNL1       -0.3024
     16 C           3.2042   -1.2670   -2.3190 C.3     1  UNL1       -0.0126
     17 C           1.0199   -1.9172   -1.5132 C.3     1  UNL1        0.0144
     18 C          -0.4799   -1.5657   -1.6137 C.3     1  UNL1        0.0263
     19 N          -0.5506   -0.1156    0.6951 N.ar    1  UNL1       -0.2305
     20 C          -0.8195    0.3988    1.9129 C.ar    1  UNL1        0.0761
     21 H           1.4358   -1.2384    2.3740 H       1  UNL1        0.0278
     22 H           0.8428   -1.8184    3.9350 H       1  UNL1        0.0278
     23 H          -0.0341   -2.2517    2.4631 H       1  UNL1        0.0278
     24 H          -0.1970   -0.1588    5.2338 H       1  UNL1        0.0621
     25 H          -1.5813    1.8720    5.4568 H       1  UNL1        0.0618
     26 H          -2.4878    2.9772    3.4477 H       1  UNL1        0.0624
     27 H          -2.7277    3.0561    0.9801 H       1  UNL1        0.0638
     28 H           0.0242    1.5035   -2.8554 H       1  UNL1        0.0477
     29 H           1.1172    1.0304   -1.5446 H       1  UNL1        0.0477
     30 H           1.9814    0.3552   -3.7930 H       1  UNL1        0.0442
     31 H           0.5306   -0.5750   -4.0798 H       1  UNL1        0.0442
     32 H           3.8039   -1.0293   -3.2045 H       1  UNL1        0.0391
     33 H           3.6226   -2.1866   -1.8948 H       1  UNL1        0.0391
     34 H           3.3323   -0.4593   -1.5895 H       1  UNL1        0.0391
     35 H           1.4199   -1.4794   -0.5894 H       1  UNL1        0.0442
     36 H           1.1284   -3.0044   -1.4273 H       1  UNL1        0.0442
     37 H          -1.0428   -2.0394   -0.7992 H       1  UNL1        0.0477
     38 H          -0.8873   -2.0015   -2.5356 H       1  UNL1        0.0477
@<TRIPOS>BOND
     1     1     2    1
     2     2     3   ar
     3     3     4   ar
     4     4     5   ar
     5     5     6   ar
     6     6     7   ar
     7     7     8   ar
     8     8     9    1
     9     9    10    3
    10     8    11   ar
    11    11    12    1
    12    12    13    1
    13    13    14    1
    14    14    15    1
    15    15    16    1
    16    15    17    1
    17    17    18    1
    18    11    19   ar
    19    19    20   ar
    20    20     2   ar
    21    20     6   ar
    22    18    12    1
    23     1    21    1
    24     1    22    1
    25     1    23    1
    26     3    24    1
    27     4    25    1
    28     5    26    1
    29     7    27    1
    30    13    28    1
    31    13    29    1
    32    14    30    1
    33    14    31    1
    34    16    32    1
    35    16    33    1
    36    16    34    1
    37    17    35    1
    38    17    36    1
    39    18    37    1
    40    18    38    1
