@<TRIPOS>MOLECULE
*****
 42 48 0 0 0
SMALL
GASTEIGER

@<TRIPOS>ATOM
      1 SI          5.8462    1.5482   -0.6341 Si      1  UNL1        0.0000
      2 C           7.3522    0.4573   -0.4379 C.2     1  UNL1        0.0000
      3 C           7.0048   -0.7916   -0.0854 C.2     1  UNL1        0.0000
      4 C           5.5761   -1.0288    0.0656 C.2     1  UNL1        0.0000
      5 C           4.7581    0.0252   -0.1632 C.2     1  UNL1        0.0000
      6 C           3.3141    0.1038   -0.0948 C.2     1  UNL1        0.0000
      7 C           2.4924    1.1601   -0.3221 C.2     1  UNL1        0.0000
      8 C           1.1112    0.8452   -0.1541 C.ar    1  UNL1        0.0000
      9 S          -0.1973    1.9037   -0.3519 S.2     1  UNL1        0.0000
     10 C          -1.3828    0.6760    0.0444 C.ar    1  UNL1        0.0000
     11 C          -0.6872   -0.5105    0.3136 C.ar    1  UNL1        0.0000
     12 C           0.6907   -0.4158    0.2035 C.ar    1  UNL1        0.0000
     13 SI          2.2228   -1.4610    0.3839 Si      1  UNL1        0.0000
     14 C          -1.4689   -1.6577    0.6638 C.ar    1  UNL1        0.0000
     15 C          -1.0782   -2.9279    0.9740 C.ar    1  UNL1        0.0000
     16 N          -2.2476   -3.6142    1.2269 N.ar    1  UNL1        0.0000
     17 C          -3.3348   -2.7746    1.0732 C.ar    1  UNL1        0.0000
     18 C          -2.8675   -1.5263    0.7157 C.ar    1  UNL1        0.0000
     19 C          -3.6562   -0.3857    0.4643 C.ar    1  UNL1        0.0000
     20 C          -5.1115   -0.3456    0.5438 C.ar    1  UNL1        0.0000
     21 C          -5.8824    0.8048    0.2887 C.ar    1  UNL1        0.0000
     22 C          -5.0612    1.8711   -0.0428 C.ar    1  UNL1        0.0000
     23 C          -5.4881    3.1347   -0.3490 C.ar    1  UNL1        0.0000
     24 O          -4.4091    3.9221   -0.6229 O.2     1  UNL1        0.0000
     25 C          -3.2887    3.1476   -0.4884 C.ar    1  UNL1        0.0000
     26 C          -3.6287    1.8651   -0.1298 C.ar    1  UNL1        0.0000
     27 C          -2.8120    0.7462    0.1143 C.ar    1  UNL1        0.0000
     28 H           5.6279    1.9742   -2.0391 H       1  UNL1        0.0000
     29 H           5.7780    2.6186    0.3919 H       1  UNL1        0.0000
     30 H           8.3510    0.8309   -0.5986 H       1  UNL1        0.0000
     31 H           7.7193   -1.5888    0.0818 H       1  UNL1        0.0000
     32 H           5.2508   -2.0219    0.3491 H       1  UNL1        0.0000
     33 H           2.8077    2.1565   -0.6035 H       1  UNL1        0.0000
     34 H           2.3675   -2.5309   -0.6377 H       1  UNL1        0.0000
     35 H           2.5163   -1.8967    1.7743 H       1  UNL1        0.0000
     36 H          -0.1259   -3.4300    1.0472 H       1  UNL1        0.0000
     37 H          -2.3034   -4.5906    1.4873 H       1  UNL1        0.0000
     38 H          -4.3318   -3.1596    1.2361 H       1  UNL1        0.0000
     39 H          -5.6449   -1.2554    0.8162 H       1  UNL1        0.0000
     40 H          -6.9608    0.8273    0.3494 H       1  UNL1        0.0000
     41 H          -6.4507    3.6209   -0.4174 H       1  UNL1        0.0000
     42 H          -2.3673    3.6741   -0.6839 H       1  UNL1        0.0000
@<TRIPOS>BOND
     1     1     2    1
     2     2     3    2
     3     3     4    1
     4     4     5    2
     5     5     6    1
     6     6     7    2
     7     7     8    1
     8     8     9   ar
     9     9    10   ar
    10    10    11   ar
    11    11    12   ar
    12    12    13    1
    13    11    14   ar
    14    14    15   ar
    15    15    16   ar
    16    16    17   ar
    17    17    18   ar
    18    18    19   ar
    19    19    20   ar
    20    20    21   ar
    21    21    22   ar
    22    22    23   ar
    23    23    24   ar
    24    24    25   ar
    25    25    26   ar
    26    26    27   ar
    27     5     1    1
    28    13     6    1
    29    18    14   ar
    30    27    19   ar
    31    12     8   ar
    32    26    22   ar
    33    27    10   ar
    34     1    28    1
    35     1    29    1
    36     2    30    1
    37     3    31    1
    38     4    32    1
    39     7    33    1
    40    13    34    1
    41    13    35    1
    42    15    36    1
    43    16    37    1
    44    17    38    1
    45    20    39    1
    46    21    40    1
    47    23    41    1
    48    25    42    1
