@<TRIPOS>MOLECULE
*****
 34 36 0 0 0
SMALL
GASTEIGER

@<TRIPOS>ATOM
      1 C          -4.3869    1.5250    0.8640 C.3     1  UNL1       -0.0377
      2 C          -3.7246    0.4753    0.0179 C.ar    1  UNL1       -0.0265
      3 C          -4.3958   -0.0239   -1.1092 C.ar    1  UNL1       -0.0569
      4 C          -3.8093   -0.9989   -1.9183 C.ar    1  UNL1       -0.0608
      5 C          -2.5417   -1.4922   -1.6138 C.ar    1  UNL1       -0.0526
      6 C          -1.8562   -1.0104   -0.4965 C.ar    1  UNL1       -0.0008
      7 C          -0.5251   -1.5141   -0.1584 C.ar    1  UNL1       -0.0410
      8 C           0.1440   -1.0403    0.9063 C.ar    1  UNL1        0.0546
      9 C           1.5028   -1.5272    1.3068 C.3     1  UNL1        0.1230
     10 O           2.5019   -0.5810    0.9035 O.3     1  UNL1       -0.4541
     11 C           3.0544   -0.7889   -0.3260 C.2     1  UNL1        0.3751
     12 O           2.7614   -1.7183   -1.0691 O.2     1  UNL1       -0.2415
     13 C           4.0196    0.2503   -0.5990 C.ar    1  UNL1        0.2112
     14 C           4.4320    1.3585    0.1225 C.ar    1  UNL1       -0.0093
     15 C           5.4122    2.0177   -0.6579 C.ar    1  UNL1       -0.0231
     16 C           5.5430    1.2781   -1.8081 C.ar    1  UNL1        0.0929
     17 O           4.7076    0.2091   -1.7845 O.2     1  UNL1       -0.4564
     18 C          -0.4832   -0.0088    1.7803 C.ar    1  UNL1        0.2556
     19 O           0.0846    0.4266    2.7776 O.2     1  UNL1       -0.2675
     20 N          -1.7300    0.4334    1.4294 N.ar    1  UNL1       -0.3216
     21 C          -2.4473   -0.0288    0.3149 C.ar    1  UNL1        0.0521
     22 H          -5.3756    1.7916    0.4755 H       1  UNL1        0.0278
     23 H          -3.7822    2.4374    0.8796 H       1  UNL1        0.0278
     24 H          -4.5228    1.1584    1.8866 H       1  UNL1        0.0278
     25 H          -5.3863    0.3457   -1.3681 H       1  UNL1        0.0621
     26 H          -4.3423   -1.3737   -2.7890 H       1  UNL1        0.0618
     27 H          -2.0974   -2.2497   -2.2549 H       1  UNL1        0.0624
     28 H          -0.0853   -2.2693   -0.8035 H       1  UNL1        0.0630
     29 H           1.5705   -1.6323    2.3956 H       1  UNL1        0.0750
     30 H           1.7134   -2.5272    0.9070 H       1  UNL1        0.0750
     31 H           4.0613    1.6505    1.0964 H       1  UNL1        0.0657
     32 H           5.9551    2.9199   -0.4131 H       1  UNL1        0.0649
     33 H           6.1539    1.3728   -2.6954 H       1  UNL1        0.1029
     34 H          -2.1258    1.1345    2.0386 H       1  UNL1        0.1689
@<TRIPOS>BOND
     1     1     2    1
     2     2     3   ar
     3     3     4   ar
     4     4     5   ar
     5     5     6   ar
     6     6     7   ar
     7     7     8   ar
     8     8     9    1
     9     9    10    1
    10    10    11    1
    11    11    12    2
    12    11    13    1
    13    13    14   ar
    14    14    15   ar
    15    15    16   ar
    16    16    17   ar
    17     8    18   ar
    18    18    19    2
    19    18    20   ar
    20    20    21   ar
    21    21     2   ar
    22    21     6   ar
    23    17    13   ar
    24     1    22    1
    25     1    23    1
    26     1    24    1
    27     3    25    1
    28     4    26    1
    29     5    27    1
    30     7    28    1
    31     9    29    1
    32     9    30    1
    33    14    31    1
    34    15    32    1
    35    16    33    1
    36    20    34    1
