@<TRIPOS>MOLECULE
*****
 37 40 0 0 0
SMALL
GASTEIGER

@<TRIPOS>ATOM
      1 C          -3.4240    1.0256    3.2266 C.3     1  UNL1       -0.0377
      2 C          -3.3521    1.4694    1.7929 C.ar    1  UNL1       -0.0239
      3 C          -4.0729    2.6131    1.3918 C.ar    1  UNL1       -0.0568
      4 C          -4.0571    3.0533    0.0715 C.ar    1  UNL1       -0.0603
      5 C          -3.3357    2.3603   -0.9028 C.ar    1  UNL1       -0.0458
      6 C          -2.6417    1.2033   -0.5154 C.ar    1  UNL1        0.0410
      7 S          -1.7153    0.1219   -1.4856 S.2     1  UNL1       -0.0520
      8 C          -1.4057   -0.8377   -0.1214 C.ar    1  UNL1        0.1655
      9 N          -0.6716   -1.9914   -0.1692 N.am    1  UNL1       -0.2640
     10 C          -0.2661   -2.6710   -1.2961 C.2     1  UNL1        0.2290
     11 O          -0.5305   -2.3802   -2.4624 O.2     1  UNL1       -0.2745
     12 C           0.5553   -3.9134   -0.9628 C.3     1  UNL1        0.0794
     13 S           2.1561   -3.8934   -1.8072 S.3     1  UNL1       -0.0578
     14 C           2.8029   -2.4003   -1.1941 C.ar    1  UNL1        0.2584
     15 N           2.4165   -1.8568   -0.0523 N.ar    1  UNL1       -0.2033
     16 C           3.1304   -0.6846    0.0046 C.ar    1  UNL1        0.1104
     17 C           3.1476    0.3434    0.9576 C.ar    1  UNL1       -0.0326
     18 C           3.9846    1.4473    0.7215 C.ar    1  UNL1       -0.0595
     19 C           4.7769    1.5253   -0.4344 C.ar    1  UNL1       -0.0582
     20 C           4.7731    0.5042   -1.3914 C.ar    1  UNL1       -0.0171
     21 C           3.9336   -0.5694   -1.1190 C.ar    1  UNL1        0.1562
     22 O           3.7381   -1.6767   -1.8865 O.2     1  UNL1       -0.4307
     23 N          -1.8872   -0.4062    1.0174 N.ar    1  UNL1       -0.2243
     24 C          -2.6283    0.7509    0.8062 C.ar    1  UNL1        0.0832
     25 H          -3.3766    1.8880    3.9022 H       1  UNL1        0.0278
     26 H          -2.5895    0.3636    3.4784 H       1  UNL1        0.0278
     27 H          -4.3628    0.4896    3.4001 H       1  UNL1        0.0278
     28 H          -4.6578    3.1691    2.1264 H       1  UNL1        0.0621
     29 H          -4.6176    3.9401   -0.2083 H       1  UNL1        0.0618
     30 H          -3.3277    2.6972   -1.9338 H       1  UNL1        0.0629
     31 H          -0.4927   -2.3786    0.7477 H       1  UNL1        0.1567
     32 H          -0.0138   -4.7893   -1.3000 H       1  UNL1        0.0476
     33 H           0.7132   -4.0222    0.1154 H       1  UNL1        0.0476
     34 H           2.5130    0.2939    1.8330 H       1  UNL1        0.0640
     35 H           4.0062    2.2618    1.4394 H       1  UNL1        0.0618
     36 H           5.4058    2.3999   -0.5975 H       1  UNL1        0.0619
     37 H           5.3732    0.5498   -2.2958 H       1  UNL1        0.0655
@<TRIPOS>BOND
     1     1     2    1
     2     2     3   ar
     3     3     4   ar
     4     4     5   ar
     5     5     6   ar
     6     6     7   ar
     7     7     8   ar
     8     8     9    1
     9     9    10   am
    10    10    11    2
    11    10    12    1
    12    12    13    1
    13    13    14    1
    14    14    15   ar
    15    15    16   ar
    16    16    17   ar
    17    17    18   ar
    18    18    19   ar
    19    19    20   ar
    20    20    21   ar
    21    21    22   ar
    22     8    23   ar
    23    23    24   ar
    24    24     2   ar
    25    24     6   ar
    26    22    14   ar
    27    21    16   ar
    28     1    25    1
    29     1    26    1
    30     1    27    1
    31     3    28    1
    32     4    29    1
    33     5    30    1
    34     9    31    1
    35    12    32    1
    36    12    33    1
    37    17    34    1
    38    18    35    1
    39    19    36    1
    40    20    37    1
