@<TRIPOS>MOLECULE
*****
 36 38 0 0 0
SMALL
GASTEIGER

@<TRIPOS>ATOM
      1 C          -4.1916    1.8207    0.0833 C.3     1  UNL1       -0.0394
      2 C          -3.9988    0.4435   -0.4920 C.ar    1  UNL1       -0.0455
      3 C          -4.7416    0.0776   -1.6271 C.ar    1  UNL1       -0.0585
      4 C          -4.5986   -1.1843   -2.2031 C.ar    1  UNL1       -0.0615
      5 C          -3.7095   -2.1005   -1.6545 C.ar    1  UNL1       -0.0614
      6 C          -2.9663   -1.7559   -0.5268 C.ar    1  UNL1       -0.0565
      7 C          -3.1021   -0.4889    0.0735 C.ar    1  UNL1       -0.0215
      8 C          -2.2595   -0.1765    1.2904 C.3     1  UNL1        0.0880
      9 N          -0.9219    0.2520    0.9241 N.ar    1  UNL1       -0.1584
     10 N          -0.5874    1.5520    0.8535 N.ar    1  UNL1       -0.0455
     11 N           0.7076    1.5515    0.5751 N.ar    1  UNL1       -0.1078
     12 C           1.1068    0.2351    0.5190 C.ar    1  UNL1        0.2046
     13 C           2.4799   -0.1642    0.2362 C.ar    1  UNL1        0.0235
     14 C           2.8368   -1.5212    0.1891 C.ar    1  UNL1       -0.0509
     15 C           4.1518   -1.9056   -0.0820 C.ar    1  UNL1       -0.0603
     16 C           5.1266   -0.9356   -0.3098 C.ar    1  UNL1       -0.0477
     17 C           4.7895    0.4225   -0.2675 C.ar    1  UNL1        0.0595
     18 C           5.8611    1.4169   -0.5167 C.2     1  UNL1        0.3368
     19 O           7.0262    1.1626   -0.7597 O.2     1  UNL1       -0.2451
     20 O           5.4221    2.6854   -0.4490 O.3     1  UNL1       -0.4771
     21 C           3.4683    0.8051    0.0050 C.ar    1  UNL1       -0.0370
     22 N           0.0977   -0.6195    0.7669 N.ar    1  UNL1       -0.1301
     23 H          -3.2435    2.3658    0.1000 H       1  UNL1        0.0278
     24 H          -4.5974    1.7546    1.0976 H       1  UNL1        0.0278
     25 H          -4.8948    2.4115   -0.5136 H       1  UNL1        0.0278
     26 H          -5.4396    0.7810   -2.0774 H       1  UNL1        0.0620
     27 H          -5.1784   -1.4482   -3.0837 H       1  UNL1        0.0618
     28 H          -3.5901   -3.0817   -2.1065 H       1  UNL1        0.0618
     29 H          -2.2668   -2.4850   -0.1191 H       1  UNL1        0.0621
     30 H          -2.7057    0.6021    1.9171 H       1  UNL1        0.0577
     31 H          -2.1604   -1.0650    1.9260 H       1  UNL1        0.0577
     32 H           2.0874   -2.2918    0.3638 H       1  UNL1        0.0625
     33 H           4.4141   -2.9604   -0.1158 H       1  UNL1        0.0618
     34 H           6.1499   -1.2411   -0.5210 H       1  UNL1        0.0626
     35 H           6.2203    3.2240   -0.6316 H       1  UNL1        0.2954
     36 H           3.2076    1.8616    0.0369 H       1  UNL1        0.0633
@<TRIPOS>BOND
     1     1     2    1
     2     2     3   ar
     3     3     4   ar
     4     4     5   ar
     5     5     6   ar
     6     6     7   ar
     7     7     8    1
     8     8     9    1
     9     9    10   ar
    10    10    11   ar
    11    11    12   ar
    12    12    13    1
    13    13    14   ar
    14    14    15   ar
    15    15    16   ar
    16    16    17   ar
    17    17    18    1
    18    18    19    2
    19    18    20    1
    20    17    21   ar
    21    12    22   ar
    22     7     2   ar
    23    22     9   ar
    24    21    13   ar
    25     1    23    1
    26     1    24    1
    27     1    25    1
    28     3    26    1
    29     4    27    1
    30     5    28    1
    31     6    29    1
    32     8    30    1
    33     8    31    1
    34    14    32    1
    35    15    33    1
    36    16    34    1
    37    20    35    1
    38    21    36    1
