@<TRIPOS>MOLECULE
*****
 34 35 0 0 0
SMALL
GASTEIGER

@<TRIPOS>ATOM
      1 C          -3.3856    1.5563    0.9726 C.3     1  UNL1       -0.0394
      2 C          -3.1273    0.1613    0.4739 C.ar    1  UNL1       -0.0458
      3 C          -3.8717   -0.9009    1.0142 C.ar    1  UNL1       -0.0585
      4 C          -3.6665   -2.2120    0.5846 C.ar    1  UNL1       -0.0615
      5 C          -2.7143   -2.4817   -0.3916 C.ar    1  UNL1       -0.0614
      6 C          -1.9731   -1.4385   -0.9437 C.ar    1  UNL1       -0.0568
      7 C          -2.1748   -0.1081   -0.5320 C.ar    1  UNL1       -0.0274
      8 C          -1.3205    0.9694   -1.1592 C.3     1  UNL1        0.0374
      9 N          -0.0433    1.0630   -0.4869 N.am    1  UNL1       -0.3072
     10 C           1.0999    0.5179   -1.0352 C.2     1  UNL1        0.2461
     11 O           1.1508    0.0313   -2.1610 O.2     1  UNL1       -0.2701
     12 C           2.3094    0.5223   -0.1608 C.ar    1  UNL1        0.0573
     13 C           2.5328    1.6032    0.7096 C.ar    1  UNL1       -0.0479
     14 C           3.6558    1.6194    1.5365 C.ar    1  UNL1       -0.0609
     15 C           4.5543    0.5570    1.5034 C.ar    1  UNL1       -0.0600
     16 C           4.3445   -0.5115    0.6280 C.ar    1  UNL1       -0.0403
     17 C           3.2524   -0.5230   -0.2503 C.ar    1  UNL1        0.0368
     18 N           3.0239   -1.6813   -1.0211 N.pl3   1  UNL1       -0.3574
     19 H          -3.8410    2.1616    0.1825 H       1  UNL1        0.0278
     20 H          -4.0684    1.5574    1.8291 H       1  UNL1        0.0278
     21 H          -2.4531    2.0245    1.3033 H       1  UNL1        0.0278
     22 H          -4.6198   -0.7136    1.7818 H       1  UNL1        0.0620
     23 H          -4.2473   -3.0228    1.0159 H       1  UNL1        0.0618
     24 H          -2.5441   -3.5024   -0.7229 H       1  UNL1        0.0618
     25 H          -1.2224   -1.6641   -1.7008 H       1  UNL1        0.0621
     26 H          -1.1859    0.7694   -2.2285 H       1  UNL1        0.0512
     27 H          -1.7994    1.9503   -1.0867 H       1  UNL1        0.0512
     28 H          -0.0702    1.2054    0.5131 H       1  UNL1        0.1493
     29 H           1.8479    2.4462    0.7375 H       1  UNL1        0.0626
     30 H           3.8265    2.4556    2.2099 H       1  UNL1        0.0618
     31 H           5.4189    0.5535    2.1628 H       1  UNL1        0.0618
     32 H           5.0437   -1.3443    0.6364 H       1  UNL1        0.0636
     33 H           3.8732   -2.1409   -1.3310 H       1  UNL1        0.1423
     34 H           2.3948   -1.4798   -1.8076 H       1  UNL1        0.1423
@<TRIPOS>BOND
     1     1     2    1
     2     2     3   ar
     3     3     4   ar
     4     4     5   ar
     5     5     6   ar
     6     6     7   ar
     7     7     8    1
     8     8     9    1
     9     9    10   am
    10    10    11    2
    11    10    12    1
    12    12    13   ar
    13    13    14   ar
    14    14    15   ar
    15    15    16   ar
    16    16    17   ar
    17    17    18    1
    18     7     2   ar
    19    17    12   ar
    20     1    19    1
    21     1    20    1
    22     1    21    1
    23     3    22    1
    24     4    23    1
    25     5    24    1
    26     6    25    1
    27     8    26    1
    28     8    27    1
    29     9    28    1
    30    13    29    1
    31    14    30    1
    32    15    31    1
    33    16    32    1
    34    18    33    1
    35    18    34    1
