@<TRIPOS>MOLECULE
*****
 44 46 0 0 0
SMALL
GASTEIGER

@<TRIPOS>ATOM
      1 C          -4.0258   -0.7220    1.7043 C.3     1  UNL1       -0.0607
      2 C          -4.0378   -0.1738    0.2760 C.3     1  UNL1       -0.0254
      3 C          -4.0750   -1.3196   -0.7471 C.3     1  UNL1       -0.0488
      4 C          -4.0905   -0.7950   -2.1808 C.3     1  UNL1       -0.0527
      5 C          -2.9339    0.1614   -2.4514 C.3     1  UNL1       -0.0514
      6 C          -2.8991    1.3056   -1.4389 C.3     1  UNL1       -0.0343
      7 C          -2.8683    0.8016    0.0130 C.3     1  UNL1        0.0257
      8 N          -1.5730    0.2004    0.3185 N.am    1  UNL1       -0.3122
      9 C          -0.4778    0.9637    0.6660 C.2     1  UNL1        0.2149
     10 O          -0.5141    2.1802    0.8091 O.2     1  UNL1       -0.2757
     11 C           0.7826    0.1452    0.8234 C.3     1  UNL1        0.0421
     12 C           1.9083    0.9812    1.4200 C.3     1  UNL1        0.0380
     13 N           3.1392    0.2322    1.5102 N.ar    1  UNL1       -0.2737
     14 C           3.4714   -0.6559    2.5142 C.ar    1  UNL1        0.4213
     15 O           2.7912   -0.9148    3.4979 O.2     1  UNL1       -0.2226
     16 O           4.7083   -1.2650    2.2588 O.2     1  UNL1       -0.4074
     17 C           5.0641   -0.7178    1.0368 C.ar    1  UNL1        0.1570
     18 C           6.2091   -1.0187    0.3305 C.ar    1  UNL1       -0.0171
     19 C           6.3943   -0.3754   -0.8969 C.ar    1  UNL1       -0.0582
     20 C           5.4395    0.5408   -1.3815 C.ar    1  UNL1       -0.0596
     21 C           4.2849    0.8295   -0.6467 C.ar    1  UNL1       -0.0344
     22 C           4.1319    0.1822    0.5603 C.ar    1  UNL1        0.0901
     23 H          -4.9264   -1.3156    1.8951 H       1  UNL1        0.0233
     24 H          -3.1593   -1.3661    1.8861 H       1  UNL1        0.0233
     25 H          -4.0039    0.0946    2.4335 H       1  UNL1        0.0233
     26 H          -4.9694    0.3984    0.1601 H       1  UNL1        0.0316
     27 H          -3.2107   -1.9811   -0.6112 H       1  UNL1        0.0268
     28 H          -4.9676   -1.9353   -0.5824 H       1  UNL1        0.0268
     29 H          -5.0400   -0.2782   -2.3674 H       1  UNL1        0.0265
     30 H          -4.0443   -1.6367   -2.8811 H       1  UNL1        0.0265
     31 H          -3.0278    0.5717   -3.4634 H       1  UNL1        0.0266
     32 H          -1.9867   -0.3905   -2.4210 H       1  UNL1        0.0266
     33 H          -2.0320    1.9441   -1.6451 H       1  UNL1        0.0283
     34 H          -3.7907    1.9298   -1.5799 H       1  UNL1        0.0283
     35 H          -2.9850    1.6703    0.6737 H       1  UNL1        0.0501
     36 H          -1.4203   -0.7669    0.0631 H       1  UNL1        0.1490
     37 H           0.5722   -0.7188    1.4648 H       1  UNL1        0.0376
     38 H           1.0698   -0.2317   -0.1654 H       1  UNL1        0.0376
     39 H           1.6286    1.2922    2.4343 H       1  UNL1        0.0498
     40 H           2.0824    1.8965    0.8432 H       1  UNL1        0.0498
     41 H           6.9358   -1.7268    0.7122 H       1  UNL1        0.0655
     42 H           7.2856   -0.5833   -1.4855 H       1  UNL1        0.0619
     43 H           5.6060    1.0306   -2.3390 H       1  UNL1        0.0618
     44 H           3.5543    1.5370   -1.0204 H       1  UNL1        0.0639
@<TRIPOS>BOND
     1     1     2    1
     2     2     3    1
     3     3     4    1
     4     4     5    1
     5     5     6    1
     6     6     7    1
     7     7     8    1
     8     8     9   am
     9     9    10    2
    10     9    11    1
    11    11    12    1
    12    12    13    1
    13    13    14   ar
    14    14    15    2
    15    14    16   ar
    16    16    17   ar
    17    17    18   ar
    18    18    19   ar
    19    19    20   ar
    20    20    21   ar
    21    21    22   ar
    22     7     2    1
    23    22    13   ar
    24    22    17   ar
    25     1    23    1
    26     1    24    1
    27     1    25    1
    28     2    26    1
    29     3    27    1
    30     3    28    1
    31     4    29    1
    32     4    30    1
    33     5    31    1
    34     5    32    1
    35     6    33    1
    36     6    34    1
    37     7    35    1
    38     8    36    1
    39    11    37    1
    40    11    38    1
    41    12    39    1
    42    12    40    1
    43    18    41    1
    44    19    42    1
    45    20    43    1
    46    21    44    1
