@<TRIPOS>MOLECULE
*****
 43 45 0 0 0
SMALL
GASTEIGER

@<TRIPOS>ATOM
      1 C          -2.7329    1.5013   -1.1619 C.3     1  UNL1       -0.0607
      2 C          -2.2195    1.1870    0.2516 C.3     1  UNL1       -0.0254
      3 C          -3.1923    1.7331    1.3181 C.3     1  UNL1       -0.0488
      4 C          -4.0527    0.6614    1.9925 C.3     1  UNL1       -0.0527
      5 C          -4.4515   -0.4457    1.0279 C.3     1  UNL1       -0.0514
      6 C          -3.2380   -1.1491    0.4138 C.3     1  UNL1       -0.0343
      7 C          -1.9454   -0.3154    0.4774 C.3     1  UNL1        0.0257
      8 N          -0.9321   -0.8224   -0.4394 N.am    1  UNL1       -0.3107
      9 C          -0.2859   -2.0247   -0.2258 C.2     1  UNL1        0.2332
     10 O          -0.5465   -2.7943    0.6947 O.2     1  UNL1       -0.2738
     11 C           0.8575   -2.2919   -1.1989 C.3     1  UNL1        0.1037
     12 N           2.0542   -1.6357   -0.6987 N.ar    1  UNL1       -0.2898
     13 C           2.9329   -2.3271    0.0991 C.ar    1  UNL1        0.0997
     14 N           4.0186   -1.8366    0.5943 N.ar    1  UNL1       -0.2369
     15 C           4.3204   -0.4975    0.3060 C.ar    1  UNL1        0.0778
     16 C           5.5019    0.0518    0.8080 C.ar    1  UNL1       -0.0355
     17 C           5.8336    1.3851    0.5490 C.ar    1  UNL1       -0.0597
     18 C           4.9824    2.1833   -0.2159 C.ar    1  UNL1       -0.0609
     19 C           3.7988    1.6486   -0.7231 C.ar    1  UNL1       -0.0474
     20 C           3.4789    0.3121   -0.4591 C.ar    1  UNL1        0.0649
     21 C           2.2366   -0.2898   -0.9757 C.ar    1  UNL1        0.2620
     22 O           1.4130    0.3922   -1.5834 O.2     1  UNL1       -0.2669
     23 H          -2.8581    2.5823   -1.2900 H       1  UNL1        0.0233
     24 H          -2.0257    1.1666   -1.9272 H       1  UNL1        0.0233
     25 H          -3.6981    1.0301   -1.3669 H       1  UNL1        0.0233
     26 H          -1.2705    1.7309    0.3584 H       1  UNL1        0.0316
     27 H          -3.8439    2.5004    0.8820 H       1  UNL1        0.0268
     28 H          -2.6164    2.2441    2.1003 H       1  UNL1        0.0268
     29 H          -3.4986    0.2248    2.8331 H       1  UNL1        0.0265
     30 H          -4.9469    1.1276    2.4219 H       1  UNL1        0.0265
     31 H          -5.0715   -0.0209    0.2292 H       1  UNL1        0.0266
     32 H          -5.0805   -1.1825    1.5409 H       1  UNL1        0.0266
     33 H          -3.0764   -2.0985    0.9393 H       1  UNL1        0.0283
     34 H          -3.4733   -1.4241   -0.6224 H       1  UNL1        0.0283
     35 H          -1.5199   -0.4276    1.4846 H       1  UNL1        0.0501
     36 H          -0.4134   -0.1389   -0.9942 H       1  UNL1        0.1490
     37 H           0.5985   -1.9139   -2.1940 H       1  UNL1        0.0589
     38 H           1.0117   -3.3738   -1.2709 H       1  UNL1        0.0589
     39 H           2.6533   -3.3740    0.3007 H       1  UNL1        0.1030
     40 H           6.1662   -0.5661    1.4073 H       1  UNL1        0.0639
     41 H           6.7569    1.7991    0.9473 H       1  UNL1        0.0618
     42 H           5.2413    3.2205   -0.4150 H       1  UNL1        0.0618
     43 H           3.1328    2.2682   -1.3187 H       1  UNL1        0.0626
@<TRIPOS>BOND
     1     1     2    1
     2     2     3    1
     3     3     4    1
     4     4     5    1
     5     5     6    1
     6     6     7    1
     7     7     8    1
     8     8     9   am
     9     9    10    2
    10     9    11    1
    11    11    12    1
    12    12    13   ar
    13    13    14   ar
    14    14    15   ar
    15    15    16   ar
    16    16    17   ar
    17    17    18   ar
    18    18    19   ar
    19    19    20   ar
    20    20    21   ar
    21    21    22    2
    22     7     2    1
    23    21    12   ar
    24    20    15   ar
    25     1    23    1
    26     1    24    1
    27     1    25    1
    28     2    26    1
    29     3    27    1
    30     3    28    1
    31     4    29    1
    32     4    30    1
    33     5    31    1
    34     5    32    1
    35     6    33    1
    36     6    34    1
    37     7    35    1
    38     8    36    1
    39    11    37    1
    40    11    38    1
    41    13    39    1
    42    16    40    1
    43    17    41    1
    44    18    42    1
    45    19    43    1
