@<TRIPOS>MOLECULE
*****
 46 47 0 0 0
SMALL
GASTEIGER

@<TRIPOS>ATOM
      1 C          -2.0740   -0.9143    1.7956 C.3     1  UNL1       -0.0607
      2 C          -3.1085   -0.5847    0.7092 C.3     1  UNL1       -0.0254
      3 C          -4.3696    0.0511    1.3326 C.3     1  UNL1       -0.0488
      4 C          -4.5062    1.5554    1.0831 C.3     1  UNL1       -0.0527
      5 C          -3.1623    2.2677    1.1267 C.3     1  UNL1       -0.0514
      6 C          -2.1740    1.7160    0.0968 C.3     1  UNL1       -0.0343
      7 C          -2.5358    0.3119   -0.4096 C.3     1  UNL1        0.0258
      8 N          -1.3941   -0.2940   -1.0758 N.am    1  UNL1       -0.3093
      9 C          -1.5272   -1.2906   -2.0231 C.2     1  UNL1        0.2536
     10 O          -2.6119   -1.6513   -2.4742 O.2     1  UNL1       -0.2720
     11 C          -0.2093   -1.9136   -2.4790 C.3     1  UNL1        0.1932
     12 O           0.8879   -1.3201   -1.7915 O.2     1  UNL1       -0.3843
     13 N           2.0747   -1.9487   -2.1843 N.2     1  UNL1       -0.0919
     14 C           3.1151   -1.4595   -1.5734 C.2     1  UNL1        0.0771
     15 C           3.1787   -0.3067   -0.6457 C.ar    1  UNL1        0.0381
     16 C           2.4834    0.8724   -0.9473 C.ar    1  UNL1       -0.0495
     17 C           2.5566    1.9651   -0.0871 C.ar    1  UNL1       -0.0609
     18 C           3.3308    1.8841    1.0672 C.ar    1  UNL1       -0.0583
     19 C           4.0475    0.7182    1.3588 C.ar    1  UNL1       -0.0191
     20 C           3.9941   -0.3837    0.4968 C.ar    1  UNL1        0.1355
     21 O           4.6590   -1.5634    0.6992 O.3     1  UNL1       -0.4336
     22 C           5.6740   -1.5780    1.6889 C.3     1  UNL1        0.3893
     23 F           5.1001   -1.5400    2.9157 F       1  UNL1       -0.1663
     24 F           6.3123   -2.7709    1.5938 F       1  UNL1       -0.1663
     25 H          -2.5062   -1.5897    2.5423 H       1  UNL1        0.0233
     26 H          -1.2005   -1.4194    1.3712 H       1  UNL1        0.0233
     27 H          -1.7262   -0.0194    2.3195 H       1  UNL1        0.0233
     28 H          -3.4056   -1.5473    0.2714 H       1  UNL1        0.0316
     29 H          -5.2598   -0.4411    0.9203 H       1  UNL1        0.0268
     30 H          -4.3993   -0.1408    2.4124 H       1  UNL1        0.0268
     31 H          -4.9727    1.7225    0.1040 H       1  UNL1        0.0265
     32 H          -5.1858    1.9882    1.8262 H       1  UNL1        0.0265
     33 H          -2.7352    2.1651    2.1319 H       1  UNL1        0.0266
     34 H          -3.3006    3.3426    0.9628 H       1  UNL1        0.0266
     35 H          -2.1270    2.3954   -0.7644 H       1  UNL1        0.0283
     36 H          -1.1665    1.7296    0.5330 H       1  UNL1        0.0283
     37 H          -3.3178    0.4210   -1.1740 H       1  UNL1        0.0501
     38 H          -0.4784   -0.2197   -0.6425 H       1  UNL1        0.1491
     39 H          -0.1021   -1.7438   -3.5553 H       1  UNL1        0.0822
     40 H          -0.2453   -2.9860   -2.2602 H       1  UNL1        0.0822
     41 H           4.0753   -1.9704   -1.7610 H       1  UNL1        0.0870
     42 H           1.8947    0.9494   -1.8585 H       1  UNL1        0.0625
     43 H           2.0114    2.8776   -0.3173 H       1  UNL1        0.0618
     44 H           3.3785    2.7331    1.7464 H       1  UNL1        0.0619
     45 H           4.6194    0.7039    2.2824 H       1  UNL1        0.0654
     46 H           6.4083   -0.7734    1.5725 H       1  UNL1        0.1520
@<TRIPOS>BOND
     1     1     2    1
     2     2     3    1
     3     3     4    1
     4     4     5    1
     5     5     6    1
     6     6     7    1
     7     7     8    1
     8     8     9   am
     9     9    10    2
    10     9    11    1
    11    11    12    1
    12    12    13    1
    13    13    14    2
    14    14    15    1
    15    15    16   ar
    16    16    17   ar
    17    17    18   ar
    18    18    19   ar
    19    19    20   ar
    20    20    21    1
    21    21    22    1
    22    22    23    1
    23    22    24    1
    24     7     2    1
    25    20    15   ar
    26     1    25    1
    27     1    26    1
    28     1    27    1
    29     2    28    1
    30     3    29    1
    31     3    30    1
    32     4    31    1
    33     4    32    1
    34     5    33    1
    35     5    34    1
    36     6    35    1
    37     6    36    1
    38     7    37    1
    39     8    38    1
    40    11    39    1
    41    11    40    1
    42    14    41    1
    43    16    42    1
    44    17    43    1
    45    18    44    1
    46    19    45    1
    47    22    46    1
