@<TRIPOS>MOLECULE
*****
 39 40 0 0 0
SMALL
GASTEIGER

@<TRIPOS>ATOM
      1 C          -4.7546   -0.3995    1.7184 C.3     1  UNL1       -0.0362
      2 C          -5.0961   -0.2119    0.2652 C.ar    1  UNL1       -0.0088
      3 C          -6.4292    0.0130   -0.1131 C.ar    1  UNL1       -0.0554
      4 C          -6.7642    0.1898   -1.4542 C.ar    1  UNL1       -0.0613
      5 C          -5.7709    0.1409   -2.4276 C.ar    1  UNL1       -0.0583
      6 C          -4.4396   -0.0817   -2.0640 C.ar    1  UNL1       -0.0197
      7 C          -4.0930   -0.2560   -0.7206 C.ar    1  UNL1        0.1242
      8 O          -2.8218   -0.4732   -0.2598 O.3     1  UNL1       -0.4805
      9 C          -1.7706   -0.4958   -1.2163 C.3     1  UNL1        0.1859
     10 C          -0.4339   -0.6762   -0.5218 C.2     1  UNL1        0.3456
     11 O           0.4163   -1.4913   -0.8621 O.2     1  UNL1       -0.2470
     12 O          -0.2866    0.2150    0.4990 O.3     1  UNL1       -0.4528
     13 C           1.0078    0.2029    1.0949 C.3     1  UNL1        0.1681
     14 C           2.0815    0.8252    0.1967 C.2     1  UNL1        0.2510
     15 O           1.8181    1.5505   -0.7597 O.2     1  UNL1       -0.2721
     16 N           3.3711    0.5162    0.5695 N.am    1  UNL1       -0.3079
     17 C           4.4856    0.9731   -0.2262 C.3     1  UNL1        0.0431
     18 C           5.7538    0.5296    0.4262 C.ar    1  UNL1        0.0069
     19 C           6.4878   -0.6124    0.1726 C.ar    1  UNL1       -0.0500
     20 C           7.6505   -0.7039    0.9914 C.ar    1  UNL1       -0.0544
     21 C           7.7663    0.3737    1.8396 C.ar    1  UNL1       -0.0240
     22 S           6.4758    1.4781    1.6579 S.2     1  UNL1       -0.1000
     23 H          -5.6477   -0.3597    2.3514 H       1  UNL1        0.0279
     24 H          -4.0733    0.3901    2.0537 H       1  UNL1        0.0279
     25 H          -4.2843   -1.3768    1.8723 H       1  UNL1        0.0279
     26 H          -7.2133    0.0525    0.6385 H       1  UNL1        0.0621
     27 H          -7.7980    0.3645   -1.7383 H       1  UNL1        0.0618
     28 H          -6.0314    0.2768   -3.4747 H       1  UNL1        0.0619
     29 H          -3.7015   -0.1114   -2.8582 H       1  UNL1        0.0654
     30 H          -1.9055   -1.3453   -1.8954 H       1  UNL1        0.0815
     31 H          -1.7201    0.4406   -1.7825 H       1  UNL1        0.0815
     32 H           0.9543    0.8037    2.0093 H       1  UNL1        0.0796
     33 H           1.2876   -0.8171    1.3874 H       1  UNL1        0.0796
     34 H           3.5334   -0.2233    1.2401 H       1  UNL1        0.1491
     35 H           4.3928    0.5377   -1.2283 H       1  UNL1        0.0517
     36 H           4.4317    2.0636   -0.3302 H       1  UNL1        0.0517
     37 H           6.2057   -1.3520   -0.5690 H       1  UNL1        0.0626
     38 H           8.3672   -1.5155    0.9556 H       1  UNL1        0.0623
     39 H           8.5484    0.5655    2.5620 H       1  UNL1        0.0693
@<TRIPOS>BOND
     1     1     2    1
     2     2     3   ar
     3     3     4   ar
     4     4     5   ar
     5     5     6   ar
     6     6     7   ar
     7     7     8    1
     8     8     9    1
     9     9    10    1
    10    10    11    2
    11    10    12    1
    12    12    13    1
    13    13    14    1
    14    14    15    2
    15    14    16   am
    16    16    17    1
    17    17    18    1
    18    18    19   ar
    19    19    20   ar
    20    20    21   ar
    21    21    22   ar
    22     7     2   ar
    23    22    18   ar
    24     1    23    1
    25     1    24    1
    26     1    25    1
    27     3    26    1
    28     4    27    1
    29     5    28    1
    30     6    29    1
    31     9    30    1
    32     9    31    1
    33    13    32    1
    34    13    33    1
    35    16    34    1
    36    17    35    1
    37    17    36    1
    38    19    37    1
    39    20    38    1
    40    21    39    1
