@<TRIPOS>MOLECULE
*****
 35 36 0 0 0
SMALL
GASTEIGER

@<TRIPOS>ATOM
      1 C          -2.4697    1.1638    2.0585 C.3     1  UNL1       -0.0362
      2 C          -3.3947    0.5744    1.0297 C.ar    1  UNL1       -0.0088
      3 C          -4.7409    0.9689    0.9971 C.ar    1  UNL1       -0.0554
      4 C          -5.6136    0.4304    0.0535 C.ar    1  UNL1       -0.0613
      5 C          -5.1493   -0.5074   -0.8637 C.ar    1  UNL1       -0.0583
      6 C          -3.8111   -0.9088   -0.8414 C.ar    1  UNL1       -0.0197
      7 C          -2.9267   -0.3722    0.0995 C.ar    1  UNL1        0.1234
      8 O          -1.6000   -0.6986    0.2041 O.3     1  UNL1       -0.4917
      9 C          -1.0645   -1.6075   -0.7555 C.3     1  UNL1        0.0900
     10 C           0.4266   -1.7843   -0.4819 C.3     1  UNL1       -0.0104
     11 C           1.1879   -0.4611   -0.5721 C.3     1  UNL1        0.0274
     12 C           2.6868   -0.6420   -0.3852 C.2     1  UNL1        0.2187
     13 O           3.1952   -1.7509   -0.2750 O.2     1  UNL1       -0.2754
     14 N           3.3331    0.5749   -0.3787 N.am    1  UNL1       -0.2647
     15 C           4.6769    0.8027   -0.2388 C.ar    1  UNL1        0.1643
     16 N           5.1531    2.0270   -0.2471 N.ar    1  UNL1       -0.2330
     17 C           6.5254    1.9883   -0.0900 C.ar    1  UNL1        0.0368
     18 C           7.0718    0.7298    0.0345 C.ar    1  UNL1       -0.0030
     19 S           5.8245   -0.4415   -0.0480 S.2     1  UNL1       -0.0605
     20 H          -1.6405    1.6850    1.5690 H       1  UNL1        0.0279
     21 H          -2.0726    0.3758    2.7067 H       1  UNL1        0.0279
     22 H          -2.9866    1.8890    2.6957 H       1  UNL1        0.0279
     23 H          -5.1174    1.6987    1.7103 H       1  UNL1        0.0621
     24 H          -6.6550    0.7408    0.0362 H       1  UNL1        0.0618
     25 H          -5.8299   -0.9306   -1.5980 H       1  UNL1        0.0619
     26 H          -3.4936   -1.6458   -1.5710 H       1  UNL1        0.0654
     27 H          -1.5572   -2.5827   -0.6640 H       1  UNL1        0.0696
     28 H          -1.2022   -1.2155   -1.7705 H       1  UNL1        0.0696
     29 H           0.8384   -2.5086   -1.1945 H       1  UNL1        0.0302
     30 H           0.5650   -2.2022    0.5232 H       1  UNL1        0.0302
     31 H           0.8283    0.2336    0.1962 H       1  UNL1        0.0359
     32 H           1.0225   -0.0034   -1.5548 H       1  UNL1        0.0359
     33 H           2.7987    1.4267   -0.4764 H       1  UNL1        0.1567
     34 H           7.0844    2.9160   -0.0731 H       1  UNL1        0.0835
     35 H           8.1070    0.4505    0.1655 H       1  UNL1        0.0709
@<TRIPOS>BOND
     1     1     2    1
     2     2     3   ar
     3     3     4   ar
     4     4     5   ar
     5     5     6   ar
     6     6     7   ar
     7     7     8    1
     8     8     9    1
     9     9    10    1
    10    10    11    1
    11    11    12    1
    12    12    13    2
    13    12    14   am
    14    14    15    1
    15    15    16   ar
    16    16    17   ar
    17    17    18   ar
    18    18    19   ar
    19     7     2   ar
    20    19    15   ar
    21     1    20    1
    22     1    21    1
    23     1    22    1
    24     3    23    1
    25     4    24    1
    26     5    25    1
    27     6    26    1
    28     9    27    1
    29     9    28    1
    30    10    29    1
    31    10    30    1
    32    11    31    1
    33    11    32    1
    34    14    33    1
    35    17    34    1
    36    18    35    1
