@<TRIPOS>MOLECULE
*****
 33 34 0 0 0
SMALL
GASTEIGER

@<TRIPOS>ATOM
      1 C          -3.5428    1.6159    0.9991 C.3     1  UNL1       -0.0387
      2 C          -3.6529    0.4975   -0.0015 C.ar    1  UNL1       -0.0370
      3 C          -4.8363    0.3696   -0.7487 C.ar    1  UNL1       -0.0578
      4 C          -4.9879   -0.6574   -1.6808 C.ar    1  UNL1       -0.0614
      5 C          -3.9609   -1.5743   -1.8779 C.ar    1  UNL1       -0.0607
      6 C          -2.7790   -1.4605   -1.1463 C.ar    1  UNL1       -0.0481
      7 C          -2.6118   -0.4260   -0.2142 C.ar    1  UNL1        0.0112
      8 S          -1.0608   -0.3474    0.6748 S.3     1  UNL1       -0.1156
      9 C          -0.1114    0.6326   -0.5348 C.3     1  UNL1        0.0748
     10 C           1.2957    0.8958   -0.0266 C.2     1  UNL1        0.2239
     11 O           1.7974    2.0176   -0.0315 O.2     1  UNL1       -0.2749
     12 N           1.9972   -0.2261    0.3618 N.am    1  UNL1       -0.3016
     13 C           3.2956   -0.1005    0.9977 C.3     1  UNL1        0.1235
     14 C           4.4000    0.3294    0.0584 C.3     1  UNL1        0.0103
     15 C           5.6199   -0.2490    0.7294 C.3     1  UNL1        0.0947
     16 O           5.1878   -1.4771    1.3183 O.3     1  UNL1       -0.4633
     17 C           3.8298   -1.4389    1.4724 C.2     1  UNL1        0.3278
     18 O           3.1604   -2.3505    1.9346 O.2     1  UNL1       -0.2487
     19 H          -4.4635    2.2078    1.0416 H       1  UNL1        0.0278
     20 H          -3.3685    1.2166    2.0033 H       1  UNL1        0.0278
     21 H          -2.7304    2.2964    0.7256 H       1  UNL1        0.0278
     22 H          -5.6552    1.0718   -0.6049 H       1  UNL1        0.0621
     23 H          -5.9115   -0.7440   -2.2478 H       1  UNL1        0.0618
     24 H          -4.0803   -2.3803   -2.5971 H       1  UNL1        0.0618
     25 H          -1.9900   -2.1917   -1.3076 H       1  UNL1        0.0629
     26 H          -0.0432    0.1027   -1.4900 H       1  UNL1        0.0474
     27 H          -0.6091    1.5940   -0.6951 H       1  UNL1        0.0474
     28 H           1.4354   -1.0312    0.6352 H       1  UNL1        0.1495
     29 H           3.2159    0.5695    1.8616 H       1  UNL1        0.0615
     30 H           4.4675    1.4120   -0.0794 H       1  UNL1        0.0321
     31 H           4.2655   -0.1279   -0.9303 H       1  UNL1        0.0321
     32 H           6.0049    0.4011    1.5225 H       1  UNL1        0.0698
     33 H           6.4228   -0.4474    0.0136 H       1  UNL1        0.0698
@<TRIPOS>BOND
     1     1     2    1
     2     2     3   ar
     3     3     4   ar
     4     4     5   ar
     5     5     6   ar
     6     6     7   ar
     7     7     8    1
     8     8     9    1
     9     9    10    1
    10    10    11    2
    11    10    12   am
    12    12    13    1
    13    13    14    1
    14    14    15    1
    15    15    16    1
    16    16    17    1
    17    17    18    2
    18     7     2   ar
    19    17    13    1
    20     1    19    1
    21     1    20    1
    22     1    21    1
    23     3    22    1
    24     4    23    1
    25     5    24    1
    26     6    25    1
    27     9    26    1
    28     9    27    1
    29    12    28    1
    30    13    29    1
    31    14    30    1
    32    14    31    1
    33    15    32    1
    34    15    33    1
