@<TRIPOS>MOLECULE
*****
 33 37 0 0 0
SMALL
GASTEIGER

@<TRIPOS>ATOM
      1 SI          2.2028    0.0253    1.6268 Si      1  UNL1        0.0000
      2 C           3.1590   -0.2039    0.0034 C.2     1  UNL1        0.0000
      3 C           2.3204   -0.2590   -1.0561 C.2     1  UNL1        0.0000
      4 C           0.8909   -0.1320   -0.7215 C.ar    1  UNL1        0.0000
      5 C          -0.1475   -0.1597   -1.6426 C.ar    1  UNL1        0.0000
      6 C          -1.4688   -0.0317   -1.2337 C.ar    1  UNL1        0.0000
      7 N          -2.4073   -0.0693   -2.1879 N.ar    1  UNL1        0.0000
      8 C          -3.6998    0.0529   -1.8188 C.ar    1  UNL1        0.0000
      9 C          -4.1354    0.2164   -0.5103 C.ar    1  UNL1        0.0000
     10 C          -5.4971    0.3374   -0.1965 C.ar    1  UNL1        0.0000
     11 C          -5.8589    0.4977    1.1272 C.ar    1  UNL1        0.0000
     12 N          -4.9712    0.5442    2.1361 N.ar    1  UNL1        0.0000
     13 C          -3.6615    0.4245    1.8026 C.ar    1  UNL1        0.0000
     14 C          -3.1585    0.2571    0.4996 C.ar    1  UNL1        0.0000
     15 C          -1.7748    0.1305    0.1445 C.ar    1  UNL1        0.0000
     16 C          -0.7072    0.1576    1.0797 C.ar    1  UNL1        0.0000
     17 C           0.6064    0.0272    0.6423 C.ar    1  UNL1        0.0000
     18 C           4.5771   -0.3070   -0.1078 C.ar    1  UNL1        0.0000
     19 C           5.3712   -0.4772   -1.2396 C.ar    1  UNL1        0.0000
     20 N           6.7388   -0.5456   -1.0535 N.ar    1  UNL1        0.0000
     21 C           6.9998   -0.4277    0.2254 C.ar    1  UNL1        0.0000
     22 S           5.6511   -0.2327    1.2543 S.2     1  UNL1        0.0000
     23 H           2.2960   -1.1524    2.5275 H       1  UNL1        0.0000
     24 H           2.4573    1.3397    2.2707 H       1  UNL1        0.0000
     25 H           2.6161   -0.3847   -2.0898 H       1  UNL1        0.0000
     26 H           0.0628   -0.2827   -2.7020 H       1  UNL1        0.0000
     27 H          -4.4030    0.0129   -2.6475 H       1  UNL1        0.0000
     28 H          -6.2630    0.3079   -0.9646 H       1  UNL1        0.0000
     29 H          -6.9009    0.5955    1.4181 H       1  UNL1        0.0000
     30 H          -3.0030    0.4707    2.6648 H       1  UNL1        0.0000
     31 H          -0.8961    0.2796    2.1425 H       1  UNL1        0.0000
     32 H           4.9940   -0.5595   -2.2520 H       1  UNL1        0.0000
     33 H           8.0102   -0.4520    0.6123 H       1  UNL1        0.0000
@<TRIPOS>BOND
     1     1     2    1
     2     2     3    2
     3     3     4    1
     4     4     5   ar
     5     5     6   ar
     6     6     7   ar
     7     7     8   ar
     8     8     9   ar
     9     9    10   ar
    10    10    11   ar
    11    11    12   ar
    12    12    13   ar
    13    13    14   ar
    14    14    15   ar
    15    15    16   ar
    16    16    17   ar
    17     2    18    1
    18    18    19   ar
    19    19    20   ar
    20    20    21   ar
    21    21    22   ar
    22    17     1    1
    23    22    18   ar
    24    17     4   ar
    25    15     6   ar
    26    14     9   ar
    27     1    23    1
    28     1    24    1
    29     3    25    1
    30     5    26    1
    31     8    27    1
    32    10    28    1
    33    11    29    1
    34    13    30    1
    35    16    31    1
    36    19    32    1
    37    21    33    1
