@<TRIPOS>MOLECULE
*****
 42 48 0 0 0
SMALL
GASTEIGER

@<TRIPOS>ATOM
      1 SI         -5.2146   -0.6929    1.5734 Si      1  UNL1        0.0000
      2 C          -6.6752    0.4053    1.1070 C.2     1  UNL1        0.0000
      3 C          -6.3610    1.2356    0.0955 C.2     1  UNL1        0.0000
      4 C          -5.0002    1.1163   -0.4051 C.2     1  UNL1        0.0000
      5 C          -4.2489    0.1766    0.2033 C.2     1  UNL1        0.0000
      6 C          -2.8572   -0.1265   -0.0672 C.ar    1  UNL1        0.0000
      7 C          -1.8007    0.6418    0.4719 C.ar    1  UNL1        0.0000
      8 C          -0.4554    0.3091    0.1883 C.ar    1  UNL1        0.0000
      9 N           0.7290    0.9063    0.6067 N.ar    1  UNL1        0.0000
     10 C           1.7970    0.2336    0.0765 C.ar    1  UNL1        0.0000
     11 C           1.2999   -0.8067   -0.6954 C.ar    1  UNL1        0.0000
     12 SI          2.7218   -1.7587   -1.4503 Si      1  UNL1        0.0000
     13 C           3.9861   -0.5552   -0.5747 C.ar    1  UNL1        0.0000
     14 C           5.4063   -0.6007   -0.6456 C.ar    1  UNL1        0.0000
     15 C           6.2175    0.3335    0.0385 C.ar    1  UNL1        0.0000
     16 C           5.4829    1.2792    0.7711 C.ar    1  UNL1        0.0000
     17 C           6.0864    2.2706    1.5041 C.ar    1  UNL1        0.0000
     18 S           4.9222    3.2649    2.2848 S.2     1  UNL1        0.0000
     19 C           3.6031    2.3645    1.6390 C.ar    1  UNL1        0.0000
     20 C           4.0346    1.3300    0.8467 C.ar    1  UNL1        0.0000
     21 C           3.2291    0.4136    0.1756 C.ar    1  UNL1        0.0000
     22 C          -0.0711   -0.7552   -0.6232 C.ar    1  UNL1        0.0000
     23 C          -1.1048   -1.5505   -1.2056 C.ar    1  UNL1        0.0000
     24 C          -0.9341   -2.6209   -2.0330 C.ar    1  UNL1        0.0000
     25 S          -2.4794   -3.2335   -2.4838 S.2     1  UNL1        0.0000
     26 C          -3.3089   -2.0375   -1.5545 C.ar    1  UNL1        0.0000
     27 C          -2.4440   -1.1871   -0.8951 C.ar    1  UNL1        0.0000
     28 H          -5.4908   -2.1205    1.2748 H       1  UNL1        0.0000
     29 H          -4.7071   -0.3807    2.9333 H       1  UNL1        0.0000
     30 H          -7.6212    0.3318    1.6195 H       1  UNL1        0.0000
     31 H          -7.0502    1.9526   -0.3334 H       1  UNL1        0.0000
     32 H          -4.6461    1.7527   -1.2073 H       1  UNL1        0.0000
     33 H          -2.0247    1.4915    1.1130 H       1  UNL1        0.0000
     34 H           0.7727    1.7132    1.2099 H       1  UNL1        0.0000
     35 H           2.8763   -3.1439   -0.9352 H       1  UNL1        0.0000
     36 H           2.8254   -1.6413   -2.9280 H       1  UNL1        0.0000
     37 H           5.8915   -1.3731   -1.2411 H       1  UNL1        0.0000
     38 H           7.2990    0.3038   -0.0117 H       1  UNL1        0.0000
     39 H           7.1406    2.4747    1.6310 H       1  UNL1        0.0000
     40 H           2.6012    2.6683    1.8945 H       1  UNL1        0.0000
     41 H          -0.0369   -3.0861   -2.4096 H       1  UNL1        0.0000
     42 H          -4.3900   -2.0382   -1.5587 H       1  UNL1        0.0000
@<TRIPOS>BOND
     1     1     2    1
     2     2     3    2
     3     3     4    1
     4     4     5    2
     5     5     6    1
     6     6     7   ar
     7     7     8   ar
     8     8     9   ar
     9     9    10   ar
    10    10    11   ar
    11    11    12    1
    12    12    13    1
    13    13    14   ar
    14    14    15   ar
    15    15    16   ar
    16    16    17   ar
    17    17    18   ar
    18    18    19   ar
    19    19    20   ar
    20    20    21   ar
    21    11    22   ar
    22    22    23   ar
    23    23    24   ar
    24    24    25   ar
    25    25    26   ar
    26    26    27   ar
    27     5     1    1
    28    27     6   ar
    29    22     8   ar
    30    27    23   ar
    31    10    21    1
    32    21    13   ar
    33    20    16   ar
    34     1    28    1
    35     1    29    1
    36     2    30    1
    37     3    31    1
    38     4    32    1
    39     7    33    1
    40     9    34    1
    41    12    35    1
    42    12    36    1
    43    14    37    1
    44    15    38    1
    45    17    39    1
    46    19    40    1
    47    24    41    1
    48    26    42    1
