@<TRIPOS>MOLECULE
*****
 41 43 0 0 0
SMALL
GASTEIGER

@<TRIPOS>ATOM
      1 C          -3.3201    2.4698    1.5257 C.3     1  UNL1       -0.0362
      2 C          -3.6297    1.0657    1.0771 C.ar    1  UNL1       -0.0076
      3 C          -4.5676    0.3337    1.7272 C.ar    1  UNL1       -0.0540
      4 C          -4.9104   -1.0274    1.3430 C.ar    1  UNL1       -0.0448
      5 C          -4.2761   -1.5883    0.3019 C.ar    1  UNL1        0.0112
      6 N          -3.3127   -0.8501   -0.3755 N.ar    1  UNL1       -0.3061
      7 C          -2.5435   -1.2073   -1.4520 C.ar    1  UNL1        0.0340
      8 C          -1.7496   -0.1134   -1.7267 C.ar    1  UNL1        0.0771
      9 C          -0.6963    0.0469   -2.7700 C.3     1  UNL1        0.0554
     10 N           0.5327    0.3972   -2.0937 N.am    1  UNL1       -0.3094
     11 C           1.4755   -0.5597   -1.7916 C.2     1  UNL1        0.2164
     12 O           1.4539   -1.6945   -2.2578 O.2     1  UNL1       -0.2755
     13 C           2.5602   -0.0641   -0.8365 C.3     1  UNL1        0.0356
     14 C           1.9552    0.2828    0.5376 C.3     1  UNL1       -0.0419
     15 C           2.9060    0.0357    1.7106 C.3     1  UNL1       -0.0524
     16 C           4.3505    0.3235    1.3278 C.3     1  UNL1       -0.0530
     17 C           4.8273   -0.5729    0.1846 C.3     1  UNL1       -0.0524
     18 C           3.6928   -1.0866   -0.7033 C.3     1  UNL1       -0.0419
     19 N          -2.0165    0.9120   -0.8376 N.ar    1  UNL1       -0.2309
     20 C          -2.9577    0.4513   -0.0371 C.ar    1  UNL1        0.1408
     21 H          -3.5156    3.1778    0.7135 H       1  UNL1        0.0279
     22 H          -3.9232    2.7744    2.3875 H       1  UNL1        0.0279
     23 H          -2.2656    2.5517    1.8098 H       1  UNL1        0.0279
     24 H          -5.1076    0.7452    2.5762 H       1  UNL1        0.0622
     25 H          -5.6696   -1.5584    1.9072 H       1  UNL1        0.0632
     26 H          -4.4731   -2.5946   -0.0441 H       1  UNL1        0.0813
     27 H          -2.6095   -2.1842   -1.9089 H       1  UNL1        0.0832
     28 H          -0.9559    0.8763   -3.4349 H       1  UNL1        0.0527
     29 H          -0.5750   -0.8627   -3.3657 H       1  UNL1        0.0527
     30 H           0.4561    1.2025   -1.4850 H       1  UNL1        0.1491
     31 H           2.9825    0.8485   -1.2803 H       1  UNL1        0.0394
     32 H           1.0270   -0.2749    0.7161 H       1  UNL1        0.0272
     33 H           1.6692    1.3428    0.5314 H       1  UNL1        0.0272
     34 H           2.8179   -1.0070    2.0406 H       1  UNL1        0.0265
     35 H           2.6080    0.6591    2.5613 H       1  UNL1        0.0265
     36 H           4.4384    1.3746    1.0247 H       1  UNL1        0.0265
     37 H           5.0074    0.1945    2.1955 H       1  UNL1        0.0265
     38 H           5.3714   -1.4342    0.5909 H       1  UNL1        0.0265
     39 H           5.5506   -0.0147   -0.4223 H       1  UNL1        0.0265
     40 H           4.0956   -1.3517   -1.6886 H       1  UNL1        0.0272
     41 H           3.2972   -2.0191   -0.2785 H       1  UNL1        0.0272
@<TRIPOS>BOND
     1     1     2    1
     2     2     3   ar
     3     3     4   ar
     4     4     5   ar
     5     5     6   ar
     6     6     7   ar
     7     7     8   ar
     8     8     9    1
     9     9    10    1
    10    10    11   am
    11    11    12    2
    12    11    13    1
    13    13    14    1
    14    14    15    1
    15    15    16    1
    16    16    17    1
    17    17    18    1
    18     8    19   ar
    19    19    20   ar
    20    20     2   ar
    21    20     6   ar
    22    18    13    1
    23     1    21    1
    24     1    22    1
    25     1    23    1
    26     3    24    1
    27     4    25    1
    28     5    26    1
    29     7    27    1
    30     9    28    1
    31     9    29    1
    32    10    30    1
    33    13    31    1
    34    14    32    1
    35    14    33    1
    36    15    34    1
    37    15    35    1
    38    16    36    1
    39    16    37    1
    40    17    38    1
    41    17    39    1
    42    18    40    1
    43    18    41    1
