@<TRIPOS>MOLECULE
*****
 12 12 0 0 0
SMALL
GASTEIGER

@<TRIPOS>ATOM
      1 C          -1.7041   -0.3581    0.1017 C.3     1  UNL1       -0.0392
      2 C          -0.2777    0.0704    0.0356 C.ar    1  UNL1       -0.0434
      3 C           0.8283   -0.8187   -0.1650 C.ar    1  UNL1       -0.0518
      4 C           2.0391   -0.1629   -0.1898 C.ar    1  UNL1       -0.0241
      5 S           1.8587    1.5224    0.0236 S.2     1  UNL1       -0.1048
      6 C           0.1592    1.3771    0.1489 C.ar    1  UNL1       -0.0214
      7 H          -2.1368   -0.3832   -0.9035 H       1  UNL1        0.0278
      8 H          -1.7913   -1.3572    0.5407 H       1  UNL1        0.0278
      9 H          -2.2944    0.3306    0.7150 H       1  UNL1        0.0278
     10 H           0.7380   -1.8918   -0.2850 H       1  UNL1        0.0625
     11 H           3.0224   -0.5922   -0.3238 H       1  UNL1        0.0693
     12 H          -0.4413    2.2637    0.3014 H       1  UNL1        0.0696
@<TRIPOS>BOND
     1     1     2    1
     2     2     3   ar
     3     3     4   ar
     4     4     5   ar
     5     5     6   ar
     6     6     2   ar
     7     1     7    1
     8     1     8    1
     9     1     9    1
    10     3    10    1
    11     4    11    1
    12     6    12    1
