@<TRIPOS>MOLECULE
*****
 39 41 0 0 0
SMALL
GASTEIGER

@<TRIPOS>ATOM
      1 C           4.6223   -0.9889   -0.8985 C.3     1  UNL1       -0.0386
      2 C           4.7432   -0.1625    0.3412 C.ar    1  UNL1       -0.0348
      3 C           5.9973    0.1279    0.9776 C.ar    1  UNL1       -0.0512
      4 C           5.8568    0.9035    2.1046 C.ar    1  UNL1       -0.0235
      5 S           4.2253    1.2904    2.4094 S.2     1  UNL1       -0.0955
      6 C           3.6887    0.4211    1.0322 C.ar    1  UNL1        0.0331
      7 C           2.2644    0.4015    0.7655 C.2     1  UNL1        0.0425
      8 N           1.7867   -0.2071   -0.2742 N.2     1  UNL1       -0.2472
      9 C           0.4265   -0.1689   -0.4169 C.ar    1  UNL1        0.1503
     10 C          -0.2720   -0.0052   -1.5533 C.ar    1  UNL1        0.0636
     11 C           0.3214    0.2132   -2.9073 C.3     1  UNL1       -0.0205
     12 N          -1.6627   -0.0830   -1.3782 N.ar    1  UNL1       -0.2820
     13 C          -2.4058   -1.0315   -2.2272 C.3     1  UNL1        0.0292
     14 N          -1.8592   -0.2929    0.0196 N.ar    1  UNL1       -0.2154
     15 C          -3.0773    0.0589    0.6589 C.ar    1  UNL1        0.0674
     16 C          -3.3071   -0.2742    2.0008 C.ar    1  UNL1       -0.0362
     17 C          -4.5069    0.0679    2.6340 C.ar    1  UNL1       -0.0598
     18 C          -5.4954    0.7543    1.9354 C.ar    1  UNL1       -0.0616
     19 C          -5.2837    1.1015    0.6049 C.ar    1  UNL1       -0.0598
     20 C          -4.0841    0.7570   -0.0264 C.ar    1  UNL1       -0.0362
     21 C          -0.6103   -0.3950    0.6522 C.ar    1  UNL1        0.2975
     22 O          -0.3384   -0.5587    1.8331 O.2     1  UNL1       -0.2635
     23 H           4.1814   -0.4029   -1.7111 H       1  UNL1        0.0278
     24 H           4.0004   -1.8709   -0.7153 H       1  UNL1        0.0278
     25 H           5.6034   -1.3391   -1.2362 H       1  UNL1        0.0278
     26 H           6.9592   -0.2213    0.6208 H       1  UNL1        0.0626
     27 H           6.6360    1.2603    2.7640 H       1  UNL1        0.0693
     28 H           1.6156    0.9477    1.4770 H       1  UNL1        0.0841
     29 H           1.4017    0.3843   -2.8622 H       1  UNL1        0.0293
     30 H          -0.1302    1.0910   -3.3813 H       1  UNL1        0.0293
     31 H           0.1489   -0.6555   -3.5503 H       1  UNL1        0.0293
     32 H          -1.9970   -2.0440   -2.1304 H       1  UNL1        0.0472
     33 H          -2.3419   -0.7271   -3.2773 H       1  UNL1        0.0472
     34 H          -3.4678   -1.0705   -1.9691 H       1  UNL1        0.0472
     35 H          -2.5670   -0.8237    2.5772 H       1  UNL1        0.0639
     36 H          -4.6639   -0.2050    3.6746 H       1  UNL1        0.0618
     37 H          -6.4256    1.0228    2.4293 H       1  UNL1        0.0618
     38 H          -6.0462    1.6497    0.0577 H       1  UNL1        0.0618
     39 H          -3.9368    1.0749   -1.0548 H       1  UNL1        0.0639
@<TRIPOS>BOND
     1     1     2    1
     2     2     3   ar
     3     3     4   ar
     4     4     5   ar
     5     5     6   ar
     6     6     7    1
     7     7     8    2
     8     8     9    1
     9     9    10   ar
    10    10    11    1
    11    10    12   ar
    12    12    13    1
    13    12    14   ar
    14    14    15    1
    15    15    16   ar
    16    16    17   ar
    17    17    18   ar
    18    18    19   ar
    19    19    20   ar
    20    14    21   ar
    21    21    22    2
    22     6     2   ar
    23    21     9   ar
    24    20    15   ar
    25     1    23    1
    26     1    24    1
    27     1    25    1
    28     3    26    1
    29     4    27    1
    30     7    28    1
    31    11    29    1
    32    11    30    1
    33    11    31    1
    34    13    32    1
    35    13    33    1
    36    13    34    1
    37    16    35    1
    38    17    36    1
    39    18    37    1
    40    19    38    1
    41    20    39    1
