@<TRIPOS>MOLECULE
*****
 36 39 0 0 0
SMALL
GASTEIGER

@<TRIPOS>ATOM
      1 C           5.0007   -2.1997   -0.1110 C.3     1  UNL1       -0.0386
      2 C           5.3863   -0.8235    0.3278 C.ar    1  UNL1       -0.0352
      3 C           6.7471   -0.3705    0.3993 C.ar    1  UNL1       -0.0512
      4 C           6.8525    0.9356    0.8166 C.ar    1  UNL1       -0.0235
      5 S           5.3268    1.6286    1.1288 S.2     1  UNL1       -0.0959
      6 C           4.5046    0.1822    0.7054 C.ar    1  UNL1        0.0288
      7 C           3.0675    0.1028    0.7891 C.ar    1  UNL1        0.0267
      8 C           2.3310   -0.8020    1.5237 C.ar    1  UNL1       -0.0458
      9 C           0.9256   -0.6116    1.3681 C.ar    1  UNL1       -0.0458
     10 C           0.6126    0.4325    0.5143 C.ar    1  UNL1        0.0265
     11 C          -0.7010    0.9059    0.1233 C.ar    1  UNL1        0.0265
     12 C          -1.0233    2.0703   -0.5526 C.ar    1  UNL1       -0.0458
     13 C          -2.4253    2.2164   -0.7738 C.ar    1  UNL1       -0.0458
     14 C          -3.1498    1.1557   -0.2714 C.ar    1  UNL1        0.0267
     15 C          -4.5809    0.9822   -0.3104 C.ar    1  UNL1        0.0288
     16 S          -5.6026    2.2078    0.3270 S.2     1  UNL1       -0.0959
     17 C          -7.0121    1.3231   -0.0394 C.ar    1  UNL1       -0.0235
     18 C          -6.7212    0.1247   -0.6475 C.ar    1  UNL1       -0.0512
     19 C          -5.3106   -0.0851   -0.8211 C.ar    1  UNL1       -0.0352
     20 C          -4.7430   -1.3027   -1.4778 C.3     1  UNL1       -0.0386
     21 S          -2.1257    0.0098    0.4778 S.2     1  UNL1       -0.0872
     22 S           2.0500    1.1634   -0.0845 S.2     1  UNL1       -0.0872
     23 H           5.8451   -2.7140   -0.5818 H       1  UNL1        0.0278
     24 H           4.6781   -2.7967    0.7477 H       1  UNL1        0.0278
     25 H           4.1862   -2.1635   -0.8417 H       1  UNL1        0.0278
     26 H           7.6087   -0.9789    0.1505 H       1  UNL1        0.0626
     27 H           7.7539    1.5172    0.9529 H       1  UNL1        0.0693
     28 H           2.7748   -1.5625    2.1549 H       1  UNL1        0.0629
     29 H           0.1852   -1.2201    1.8734 H       1  UNL1        0.0629
     30 H          -0.2929    2.8019   -0.8768 H       1  UNL1        0.0629
     31 H          -2.8748    3.0608   -1.2829 H       1  UNL1        0.0629
     32 H          -7.9867    1.7230    0.2040 H       1  UNL1        0.0693
     33 H          -7.4864   -0.5751   -0.9625 H       1  UNL1        0.0626
     34 H          -5.5051   -1.8178   -2.0722 H       1  UNL1        0.0278
     35 H          -4.3729   -2.0047   -0.7240 H       1  UNL1        0.0278
     36 H          -3.9222   -1.0409   -2.1530 H       1  UNL1        0.0278
@<TRIPOS>BOND
     1     1     2    1
     2     2     3   ar
     3     3     4   ar
     4     4     5   ar
     5     5     6   ar
     6     6     7    1
     7     7     8   ar
     8     8     9   ar
     9     9    10   ar
    10    10    11    1
    11    11    12   ar
    12    12    13   ar
    13    13    14   ar
    14    14    15    1
    15    15    16   ar
    16    16    17   ar
    17    17    18   ar
    18    18    19   ar
    19    19    20    1
    20    14    21   ar
    21    10    22   ar
    22     6     2   ar
    23    22     7   ar
    24    21    11   ar
    25    19    15   ar
    26     1    23    1
    27     1    24    1
    28     1    25    1
    29     3    26    1
    30     4    27    1
    31     8    28    1
    32     9    29    1
    33    12    30    1
    34    13    31    1
    35    17    32    1
    36    18    33    1
    37    20    34    1
    38    20    35    1
    39    20    36    1
