@<TRIPOS>MOLECULE
*****
 49 54 0 0 0
SMALL
GASTEIGER

@<TRIPOS>ATOM
      1 C           7.1453    0.4891    2.9910 C.3     1  UNL1       -0.0385
      2 C           7.8185    0.6620    1.6647 C.ar    1  UNL1       -0.0326
      3 C           9.2382    0.8373    1.5344 C.ar    1  UNL1       -0.0511
      4 C           9.6410    0.9742    0.2282 C.ar    1  UNL1       -0.0234
      5 S           8.3292    0.8884   -0.8511 S.2     1  UNL1       -0.0932
      6 C           7.1833    0.6715    0.4211 C.ar    1  UNL1        0.0627
      7 C           5.7602    0.5394    0.0854 C.ar    1  UNL1        0.2101
      8 N           5.3969    0.3252   -1.1950 N.ar    1  UNL1       -0.1247
      9 N           4.0679    0.2063   -1.4912 N.ar    1  UNL1       -0.1247
     10 C           3.1687    0.3062   -0.4935 C.ar    1  UNL1        0.2101
     11 C           1.7449    0.1760   -0.8301 C.ar    1  UNL1        0.0633
     12 S           0.5647    0.4842    0.3844 S.2     1  UNL1       -0.0842
     13 C          -0.7520    0.1812   -0.6591 C.ar    1  UNL1        0.0269
     14 C          -2.1335    0.2614   -0.2341 C.ar    1  UNL1        0.0268
     15 C          -3.2076   -0.4438   -0.7778 C.ar    1  UNL1       -0.0418
     16 C          -4.4217   -0.1133   -0.1331 C.ar    1  UNL1       -0.0215
     17 C          -4.2284    0.8258    0.8597 C.ar    1  UNL1        0.0308
     18 S          -2.6542    1.3186    1.0479 S.2     1  UNL1       -0.0869
     19 C          -5.4716    1.1232    1.4684 C.ar    1  UNL1        0.0302
     20 S          -6.0021    2.1230    2.6874 S.2     1  UNL1       -0.0958
     21 C          -7.6277    1.5711    2.4487 C.ar    1  UNL1       -0.0234
     22 C          -7.7325    0.6282    1.4361 C.ar    1  UNL1       -0.0501
     23 C          -6.4646    0.3721    0.8662 C.ar    1  UNL1       -0.0221
     24 C          -5.8982   -0.5231   -0.2467 C.3     1  UNL1        0.0173
     25 C          -6.0966   -2.0073    0.0678 C.3     1  UNL1       -0.0517
     26 C          -6.4804   -0.1606   -1.6142 C.3     1  UNL1       -0.0517
     27 C          -0.2985   -0.1651   -1.9162 C.ar    1  UNL1       -0.0428
     28 C           1.1340   -0.1690   -2.0340 C.ar    1  UNL1       -0.0319
     29 C           1.8371   -0.5089   -3.3116 C.3     1  UNL1       -0.0385
     30 N           3.5328    0.5149    0.7878 N.ar    1  UNL1       -0.1247
     31 N           4.8616    0.6340    1.0839 N.ar    1  UNL1       -0.1247
     32 H           6.4719    1.3284    3.1939 H       1  UNL1        0.0278
     33 H           6.5731   -0.4441    3.0142 H       1  UNL1        0.0278
     34 H           7.8789    0.4487    3.8034 H       1  UNL1        0.0278
     35 H           9.9308    0.8623    2.3679 H       1  UNL1        0.0626
     36 H          10.6465    1.1192   -0.1431 H       1  UNL1        0.0694
     37 H          -3.1120   -1.1594   -1.5846 H       1  UNL1        0.0632
     38 H          -8.4192    1.9708    3.0678 H       1  UNL1        0.0693
     39 H          -8.6657    0.1661    1.1405 H       1  UNL1        0.0626
     40 H          -7.1608   -2.2697    0.0804 H       1  UNL1        0.0241
     41 H          -5.6828   -2.2729    1.0486 H       1  UNL1        0.0241
     42 H          -5.6014   -2.6394   -0.6785 H       1  UNL1        0.0241
     43 H          -6.0005   -0.7370   -2.4134 H       1  UNL1        0.0241
     44 H          -7.5570   -0.3626   -1.6518 H       1  UNL1        0.0241
     45 H          -6.3385    0.9022   -1.8464 H       1  UNL1        0.0241
     46 H          -0.9641   -0.3976   -2.7397 H       1  UNL1        0.0632
     47 H           1.1236   -0.8075   -4.0870 H       1  UNL1        0.0278
     48 H           2.3928    0.3562   -3.6867 H       1  UNL1        0.0278
     49 H           2.5296   -1.3437   -3.1613 H       1  UNL1        0.0278
@<TRIPOS>BOND
     1     1     2    1
     2     2     3   ar
     3     3     4   ar
     4     4     5   ar
     5     5     6   ar
     6     6     7    1
     7     7     8   ar
     8     8     9   ar
     9     9    10   ar
    10    10    11    1
    11    11    12   ar
    12    12    13   ar
    13    13    14    1
    14    14    15   ar
    15    15    16   ar
    16    16    17   ar
    17    17    18   ar
    18    17    19    1
    19    19    20   ar
    20    20    21   ar
    21    21    22   ar
    22    22    23   ar
    23    23    24    1
    24    24    25    1
    25    24    26    1
    26    13    27   ar
    27    27    28   ar
    28    28    29    1
    29    10    30   ar
    30    30    31   ar
    31     6     2   ar
    32    31     7   ar
    33    28    11   ar
    34    18    14   ar
    35    23    19   ar
    36    24    16    1
    37     1    32    1
    38     1    33    1
    39     1    34    1
    40     3    35    1
    41     4    36    1
    42    15    37    1
    43    21    38    1
    44    22    39    1
    45    25    40    1
    46    25    41    1
    47    25    42    1
    48    26    43    1
    49    26    44    1
    50    26    45    1
    51    27    46    1
    52    29    47    1
    53    29    48    1
    54    29    49    1
