@<TRIPOS>MOLECULE
*****
 40 41 0 0 0
SMALL
GASTEIGER

@<TRIPOS>ATOM
      1 C          -4.2335   -2.1007   -0.9407 C.3     1  UNL1       -0.0372
      2 C          -3.7897   -0.8553   -0.1858 C.3     1  UNL1        0.0720
      3 C          -2.2611   -0.8412    0.0050 C.3     1  UNL1        0.0412
      4 N          -1.7879    0.4072    0.6147 N.am    1  UNL1       -0.2901
      5 C          -0.4438    0.8088    0.6016 C.2     1  UNL1        0.2821
      6 O          -0.1447    1.9938    0.7570 O.2     1  UNL1       -0.2666
      7 C           0.5790   -0.2034    0.3952 C.ar    1  UNL1        0.1897
      8 C           0.7492   -1.4981    0.8542 C.ar    1  UNL1       -0.0109
      9 C           1.9794   -1.9665    0.3314 C.ar    1  UNL1       -0.0176
     10 C           2.5065   -0.9281   -0.4038 C.ar    1  UNL1        0.1314
     11 C           3.7641   -0.7521   -1.1690 C.3     1  UNL1        0.1057
     12 O           4.8547   -0.7101   -0.2467 O.3     1  UNL1       -0.3633
     13 C           5.0109    0.5817    0.3678 C.3     1  UNL1        0.1431
     14 C           6.1877    0.6118    1.3367 C.3     1  UNL1        0.4128
     15 F           7.3553    0.3349    0.7137 F       1  UNL1       -0.1682
     16 F           6.3114    1.8416    1.8914 F       1  UNL1       -0.1682
     17 F           6.0325   -0.2719    2.3473 F       1  UNL1       -0.1682
     18 O           1.6680    0.1441   -0.3627 O.2     1  UNL1       -0.4528
     19 C          -2.8219    1.4264    0.8010 C.3     1  UNL1        0.0412
     20 C          -3.7264    1.5464   -0.4422 C.3     1  UNL1        0.0720
     21 C          -3.0135    2.2383   -1.6000 C.3     1  UNL1       -0.0372
     22 O          -4.2262    0.2873   -0.9347 O.3     1  UNL1       -0.3708
     23 H          -5.3209   -2.0996   -1.0729 H       1  UNL1        0.0255
     24 H          -3.9475   -3.0123   -0.4074 H       1  UNL1        0.0255
     25 H          -3.7954   -2.1278   -1.9445 H       1  UNL1        0.0255
     26 H          -4.2978   -0.8403    0.7865 H       1  UNL1        0.0609
     27 H          -1.7600   -0.9416   -0.9653 H       1  UNL1        0.0490
     28 H          -1.9663   -1.6779    0.6433 H       1  UNL1        0.0490
     29 H           0.0843   -2.0329    1.5171 H       1  UNL1        0.0657
     30 H           2.4446   -2.9295    0.4931 H       1  UNL1        0.0653
     31 H           3.7506    0.1418   -1.8023 H       1  UNL1        0.0641
     32 H           3.9173   -1.6188   -1.8203 H       1  UNL1        0.0641
     33 H           4.0997    0.8432    0.9159 H       1  UNL1        0.0650
     34 H           5.1760    1.3302   -0.4152 H       1  UNL1        0.0650
     35 H          -3.4208    1.0958    1.6586 H       1  UNL1        0.0490
     36 H          -2.4003    2.3998    1.0704 H       1  UNL1        0.0490
     37 H          -4.6020    2.1493   -0.1752 H       1  UNL1        0.0609
     38 H          -2.1730    1.6387   -1.9654 H       1  UNL1        0.0255
     39 H          -2.6410    3.2244   -1.3065 H       1  UNL1        0.0255
     40 H          -3.6975    2.3629   -2.4467 H       1  UNL1        0.0255
@<TRIPOS>BOND
     1     1     2    1
     2     2     3    1
     3     3     4    1
     4     4     5   am
     5     5     6    2
     6     5     7    1
     7     7     8   ar
     8     8     9   ar
     9     9    10   ar
    10    10    11    1
    11    11    12    1
    12    12    13    1
    13    13    14    1
    14    14    15    1
    15    14    16    1
    16    14    17    1
    17    10    18   ar
    18     4    19    1
    19    19    20    1
    20    20    21    1
    21    20    22    1
    22    22     2    1
    23    18     7   ar
    24     1    23    1
    25     1    24    1
    26     1    25    1
    27     2    26    1
    28     3    27    1
    29     3    28    1
    30     8    29    1
    31     9    30    1
    32    11    31    1
    33    11    32    1
    34    13    33    1
    35    13    34    1
    36    19    35    1
    37    19    36    1
    38    20    37    1
    39    21    38    1
    40    21    39    1
    41    21    40    1
