@<TRIPOS>MOLECULE
*****
 36 38 0 0 0
SMALL
GASTEIGER

@<TRIPOS>ATOM
      1 C          -2.8052   -1.9506    1.0419 C.3     1  UNL1       -0.0372
      2 C          -2.1638   -1.7726   -0.3332 C.3     1  UNL1        0.0720
      3 C          -0.8665   -0.9385   -0.2586 C.3     1  UNL1        0.0411
      4 N          -1.1147    0.4952   -0.0906 N.am    1  UNL1       -0.2913
      5 C          -0.2404    1.4084    0.4978 C.2     1  UNL1        0.2666
      6 O          -0.6073    2.5579    0.7519 O.2     1  UNL1       -0.2683
      7 C           1.1402    0.9929    0.7989 C.ar    1  UNL1        0.1443
      8 C           2.0245    1.7181    1.5809 C.ar    1  UNL1        0.0417
      9 N           3.2003    1.0200    1.5823 N.ar    1  UNL1       -0.3058
     10 C           4.4043    1.3102    2.2190 C.ar    1  UNL1        0.0112
     11 C           5.4408    0.4670    2.0732 C.ar    1  UNL1       -0.0451
     12 C           5.2701   -0.7229    1.2520 C.ar    1  UNL1       -0.0569
     13 C           4.1009   -0.9948    0.6389 C.ar    1  UNL1       -0.0188
     14 C           2.9997   -0.1049    0.7918 C.ar    1  UNL1        0.1384
     15 N           1.7767   -0.1389    0.3071 N.ar    1  UNL1       -0.2232
     16 C          -2.3880    0.9866   -0.6102 C.3     1  UNL1        0.0411
     17 C          -2.9271    0.0631   -1.7107 C.3     1  UNL1        0.0720
     18 C          -4.2386    0.5895   -2.2762 C.3     1  UNL1       -0.0372
     19 O          -3.1688   -1.2649   -1.2255 O.3     1  UNL1       -0.3708
     20 H          -3.1366   -0.9952    1.4601 H       1  UNL1        0.0255
     21 H          -2.1095   -2.4160    1.7469 H       1  UNL1        0.0255
     22 H          -3.6964   -2.5831    0.9656 H       1  UNL1        0.0255
     23 H          -1.9024   -2.7722   -0.7000 H       1  UNL1        0.0609
     24 H          -0.2440   -1.3193    0.5554 H       1  UNL1        0.0490
     25 H          -0.3156   -1.0439   -1.2008 H       1  UNL1        0.0490
     26 H           1.9034    2.6520    2.1113 H       1  UNL1        0.0836
     27 H           4.4524    2.2153    2.8109 H       1  UNL1        0.0813
     28 H           6.3998    0.6471    2.5471 H       1  UNL1        0.0632
     29 H           6.1198   -1.3907    1.1446 H       1  UNL1        0.0619
     30 H           3.9723   -1.8788    0.0253 H       1  UNL1        0.0654
     31 H          -2.2600    2.0057   -0.9924 H       1  UNL1        0.0490
     32 H          -3.0814    1.0286    0.2376 H       1  UNL1        0.0490
     33 H          -2.1982   -0.0109   -2.5277 H       1  UNL1        0.0609
     34 H          -4.1163    1.5904   -2.7012 H       1  UNL1        0.0255
     35 H          -5.0110    0.6289   -1.5001 H       1  UNL1        0.0255
     36 H          -4.6133   -0.0788   -3.0589 H       1  UNL1        0.0255
@<TRIPOS>BOND
     1     1     2    1
     2     2     3    1
     3     3     4    1
     4     4     5   am
     5     5     6    2
     6     5     7    1
     7     7     8   ar
     8     8     9   ar
     9     9    10   ar
    10    10    11   ar
    11    11    12   ar
    12    12    13   ar
    13    13    14   ar
    14    14    15   ar
    15     4    16    1
    16    16    17    1
    17    17    18    1
    18    17    19    1
    19    19     2    1
    20    15     7   ar
    21    14     9   ar
    22     1    20    1
    23     1    21    1
    24     1    22    1
    25     2    23    1
    26     3    24    1
    27     3    25    1
    28     8    26    1
    29    10    27    1
    30    11    28    1
    31    12    29    1
    32    13    30    1
    33    16    31    1
    34    16    32    1
    35    17    33    1
    36    18    34    1
    37    18    35    1
    38    18    36    1
