@<TRIPOS>MOLECULE
*****
 40 42 0 0 0
SMALL
GASTEIGER

@<TRIPOS>ATOM
      1 C           8.1117   -0.1941    0.2788 C.3     1  UNL1       -0.0209
      2 C           6.6654    0.0688   -0.0016 C.ar    1  UNL1        0.0563
      3 C           5.6713   -0.5750    0.7330 C.ar    1  UNL1        0.0494
      4 N           4.3470   -0.3764    0.5238 N.ar    1  UNL1       -0.2471
      5 C           4.0541    0.5120   -0.4719 C.ar    1  UNL1        0.1437
      6 C           2.6112    0.7708   -0.7474 C.2     1  UNL1        0.2681
      7 O           2.2944    1.5591   -1.6296 O.2     1  UNL1       -0.2681
      8 N           1.7690    0.0469    0.0755 N.am    1  UNL1       -0.2802
      9 C           0.3644    0.0425    0.0960 C.ar    1  UNL1        0.0338
     10 C          -0.2633   -0.7798    1.0307 C.ar    1  UNL1       -0.0387
     11 C          -1.6630   -0.8365    1.1095 C.ar    1  UNL1       -0.0389
     12 C          -2.4877   -0.0796    0.2652 C.ar    1  UNL1        0.0299
     13 N          -3.8663   -0.1354    0.3480 N.pl3   1  UNL1       -0.3255
     14 C          -4.7284    0.9063   -0.2331 C.3     1  UNL1        0.0357
     15 C          -6.0764    0.9474    0.5070 C.3     1  UNL1        0.0634
     16 O          -6.8060   -0.2874    0.4683 O.3     1  UNL1       -0.3767
     17 C          -5.9612   -1.4400    0.3466 C.3     1  UNL1        0.0634
     18 C          -4.5679   -1.2666    0.9754 C.3     1  UNL1        0.0357
     19 C          -1.8303    0.7401   -0.6642 C.ar    1  UNL1       -0.0389
     20 C          -0.4300    0.8032   -0.7530 C.ar    1  UNL1       -0.0387
     21 C           5.0345    1.1573   -1.2080 C.ar    1  UNL1        0.0583
     22 N           6.3585    0.9487   -0.9877 N.ar    1  UNL1       -0.2564
     23 H           8.7507    0.3931   -0.3885 H       1  UNL1        0.0293
     24 H           8.3405   -1.2532    0.1249 H       1  UNL1        0.0293
     25 H           8.3531    0.0799    1.3104 H       1  UNL1        0.0293
     26 H           5.9195   -1.2786    1.5216 H       1  UNL1        0.0848
     27 H           2.2507   -0.5511    0.7437 H       1  UNL1        0.1552
     28 H           0.3195   -1.3868    1.7181 H       1  UNL1        0.0637
     29 H          -2.0951   -1.4764    1.8735 H       1  UNL1        0.0637
     30 H          -4.8915    0.6836   -1.2940 H       1  UNL1        0.0486
     31 H          -4.2679    1.8969   -0.1455 H       1  UNL1        0.0486
     32 H          -5.9207    1.2041    1.5616 H       1  UNL1        0.0575
     33 H          -6.7188    1.7215    0.0753 H       1  UNL1        0.0575
     34 H          -5.8685   -1.6703   -0.7215 H       1  UNL1        0.0575
     35 H          -6.4830   -2.2801    0.8159 H       1  UNL1        0.0575
     36 H          -4.6650   -1.0714    2.0496 H       1  UNL1        0.0486
     37 H          -4.0186   -2.2045    0.8346 H       1  UNL1        0.0486
     38 H          -2.3967    1.3424   -1.3691 H       1  UNL1        0.0637
     39 H           0.0008    1.4577   -1.5038 H       1  UNL1        0.0637
     40 H           4.7900    1.8610   -1.9967 H       1  UNL1        0.0853
@<TRIPOS>BOND
     1     1     2    1
     2     2     3   ar
     3     3     4   ar
     4     4     5   ar
     5     5     6    1
     6     6     7    2
     7     6     8   am
     8     8     9    1
     9     9    10   ar
    10    10    11   ar
    11    11    12   ar
    12    12    13    1
    13    13    14    1
    14    14    15    1
    15    15    16    1
    16    16    17    1
    17    17    18    1
    18    12    19   ar
    19    19    20   ar
    20     5    21   ar
    21    21    22   ar
    22    22     2   ar
    23    20     9   ar
    24    18    13    1
    25     1    23    1
    26     1    24    1
    27     1    25    1
    28     3    26    1
    29     8    27    1
    30    10    28    1
    31    11    29    1
    32    14    30    1
    33    14    31    1
    34    15    32    1
    35    15    33    1
    36    17    34    1
    37    17    35    1
    38    18    36    1
    39    18    37    1
    40    19    38    1
    41    20    39    1
    42    21    40    1
