@<TRIPOS>MOLECULE
*****
 26 27 0 0 0
SMALL
GASTEIGER

@<TRIPOS>ATOM
      1 C           5.3117   -0.0741    0.5231 C.3     1  UNL1       -0.0319
      2 C           3.9393   -0.4417    0.0948 C.ar    1  UNL1        0.0080
      3 C           3.4725   -1.6132   -0.4635 C.ar    1  UNL1        0.0397
      4 N           2.1218   -1.6392   -0.7531 N.ar    1  UNL1       -0.2327
      5 C           1.5782   -0.4943   -0.4100 C.ar    1  UNL1        0.1646
      6 N           0.2449   -0.2598   -0.5987 N.am    1  UNL1       -0.2625
      7 C          -0.4801    0.8528   -0.2346 C.2     1  UNL1        0.2475
      8 O          -0.0673    1.8666    0.3187 O.2     1  UNL1       -0.2726
      9 C          -1.9490    0.7182   -0.6702 C.3     1  UNL1        0.1347
     10 C          -2.9095    1.3783    0.3068 C.3     1  UNL1       -0.0159
     11 C          -4.1452    0.5255    0.1730 C.3     1  UNL1       -0.0266
     12 C          -3.5514   -0.8490   -0.0275 C.3     1  UNL1        0.0487
     13 O          -2.3526   -0.6607   -0.7925 O.3     1  UNL1       -0.3673
     14 S           2.6372    0.6599    0.2590 S.2     1  UNL1       -0.0573
     15 H           6.0108   -0.8977    0.3442 H       1  UNL1        0.0283
     16 H           5.6726    0.7976   -0.0327 H       1  UNL1        0.0283
     17 H           5.3364    0.1594    1.5925 H       1  UNL1        0.0283
     18 H           4.0753   -2.4862   -0.6836 H       1  UNL1        0.0838
     19 H          -0.2720   -1.0411   -0.9884 H       1  UNL1        0.1568
     20 H          -2.0407    1.1683   -1.6658 H       1  UNL1        0.0693
     21 H          -2.5291    1.3233    1.3343 H       1  UNL1        0.0296
     22 H          -3.0868    2.4326    0.0749 H       1  UNL1        0.0296
     23 H          -4.7057    0.8258   -0.7201 H       1  UNL1        0.0288
     24 H          -4.8138    0.5822    1.0357 H       1  UNL1        0.0288
     25 H          -4.2248   -1.5272   -0.5585 H       1  UNL1        0.0560
     26 H          -3.2727   -1.3064    0.9280 H       1  UNL1        0.0560
@<TRIPOS>BOND
     1     1     2    1
     2     2     3   ar
     3     3     4   ar
     4     4     5   ar
     5     5     6    1
     6     6     7   am
     7     7     8    2
     8     7     9    1
     9     9    10    1
    10    10    11    1
    11    11    12    1
    12    12    13    1
    13     5    14   ar
    14    14     2   ar
    15    13     9    1
    16     1    15    1
    17     1    16    1
    18     1    17    1
    19     3    18    1
    20     6    19    1
    21     9    20    1
    22    10    21    1
    23    10    22    1
    24    11    23    1
    25    11    24    1
    26    12    25    1
    27    12    26    1
