@<TRIPOS>MOLECULE
*****
 21 23 0 0 0
SMALL
GASTEIGER

@<TRIPOS>ATOM
      1 C          -2.2438   -1.5928    0.1378 C.3     1  UNL1       -0.0375
      2 C          -1.7723   -0.1806   -0.0257 C.ar    1  UNL1       -0.0191
      3 C          -2.6914    0.8412   -0.1784 C.ar    1  UNL1        0.0535
      4 N          -2.3307    2.1279   -0.3293 N.ar    1  UNL1       -0.1568
      5 N          -0.9994    2.4723   -0.3361 N.ar    1  UNL1       -0.1492
      6 C          -0.0402    1.5536   -0.1952 C.ar    1  UNL1        0.0961
      7 C           1.3097    1.9844   -0.2122 C.ar    1  UNL1       -0.0274
      8 C           2.4375    1.1512   -0.0773 C.ar    1  UNL1        0.0200
      9 C           2.0748   -0.1818    0.0793 C.ar    1  UNL1        0.3004
     10 C           0.7231   -0.6938    0.1064 C.ar    1  UNL1        0.1957
     11 N           0.7598   -2.0268    0.2739 N.ar    1  UNL1       -0.0019
     12 O           2.0916   -2.4037    0.3572 O.2     1  UNL1       -0.0982
     13 N           2.8930   -1.2276    0.2322 N.ar    1  UNL1        0.0584
     14 O           4.1347   -1.3803    0.2850 O.co2   1  UNL1       -0.5773
     15 C          -0.4030    0.1866   -0.0343 C.ar    1  UNL1        0.0420
     16 H          -1.9166   -1.9976    1.1006 H       1  UNL1        0.0278
     17 H          -1.8682   -2.2195   -0.6771 H       1  UNL1        0.0278
     18 H          -3.3375   -1.6539    0.1157 H       1  UNL1        0.0278
     19 H          -3.7618    0.6653   -0.1856 H       1  UNL1        0.0851
     20 H           1.4846    3.0557   -0.3413 H       1  UNL1        0.0642
     21 H           3.4560    1.5204   -0.0956 H       1  UNL1        0.0687
@<TRIPOS>UNITY_ATOM_ATTR
13 1
charge 1
14 1
charge -1
@<TRIPOS>BOND
     1     1     2    1
     2     2     3   ar
     3     3     4   ar
     4     4     5   ar
     5     5     6   ar
     6     6     7   ar
     7     7     8   ar
     8     8     9   ar
     9     9    10   ar
    10    10    11   ar
    11    11    12   ar
    12    12    13   ar
    13    13    14    1
    14    10    15   ar
    15    15     2   ar
    16    15     6   ar
    17    13     9   ar
    18     1    16    1
    19     1    17    1
    20     1    18    1
    21     3    19    1
    22     7    20    1
    23     8    21    1
