@<TRIPOS>MOLECULE
*****
 38 44 0 0 0
SMALL
GASTEIGER

@<TRIPOS>ATOM
      1 SI          5.2318   -1.2365    0.3480 Si      1  UNL1        0.0000
      2 C           6.8517   -0.3418    0.0725 C.2     1  UNL1        0.0000
      3 C           6.6325    0.9286   -0.3085 C.2     1  UNL1        0.0000
      4 C           5.2314    1.3078   -0.4168 C.2     1  UNL1        0.0000
      5 C           4.3244    0.3453   -0.1236 C.2     1  UNL1        0.0000
      6 C           2.8642    0.5009   -0.1648 C.ar    1  UNL1        0.0000
      7 C           1.9682   -0.5214    0.1507 C.ar    1  UNL1        0.0000
      8 C           0.6080   -0.2090    0.0614 C.ar    1  UNL1        0.0000
      9 N          -0.5039   -0.9925    0.3050 N.ar    1  UNL1        0.0000
     10 C          -1.6668   -0.2792    0.0926 C.ar    1  UNL1        0.0000
     11 C          -1.2364    0.9741   -0.2913 C.ar    1  UNL1        0.0000
     12 C           0.1644    1.0584   -0.3230 C.ar    1  UNL1        0.0000
     13 C           1.1203    2.0292   -0.6230 C.ar    1  UNL1        0.0000
     14 N           2.4438    1.7371   -0.5397 N.ar    1  UNL1        0.0000
     15 C          -2.2093    1.9771   -0.5928 C.ar    1  UNL1        0.0000
     16 N          -1.8826    3.2037   -0.9680 N.ar    1  UNL1        0.0000
     17 S          -3.3755    3.9303   -1.1830 S.2     1  UNL1        0.0000
     18 N          -4.3960    2.6621   -0.7921 N.ar    1  UNL1        0.0000
     19 C          -3.6148    1.6064   -0.4737 C.ar    1  UNL1        0.0000
     20 C          -4.0635    0.3031   -0.0745 C.ar    1  UNL1        0.0000
     21 C          -5.4496   -0.0274    0.0322 C.ar    1  UNL1        0.0000
     22 C          -5.9087   -1.2986    0.4216 C.ar    1  UNL1        0.0000
     23 C          -4.9175   -2.2673    0.7126 C.ar    1  UNL1        0.0000
     24 N          -5.1518   -3.5301    1.0985 N.ar    1  UNL1        0.0000
     25 S          -3.6702   -4.2447    1.3099 S.2     1  UNL1        0.0000
     26 N          -2.6558   -2.9866    0.9221 N.ar    1  UNL1        0.0000
     27 C          -3.4447   -1.9408    0.6067 C.ar    1  UNL1        0.0000
     28 C          -3.0218   -0.6405    0.2086 C.ar    1  UNL1        0.0000
     29 H           5.0123   -2.3367   -0.6245 H       1  UNL1        0.0000
     30 H           5.0219   -1.6178    1.7674 H       1  UNL1        0.0000
     31 H           7.8067   -0.8223    0.2130 H       1  UNL1        0.0000
     32 H           7.4182    1.6416   -0.5261 H       1  UNL1        0.0000
     33 H           4.9619    2.3144   -0.7185 H       1  UNL1        0.0000
     34 H           2.2805   -1.5118    0.4515 H       1  UNL1        0.0000
     35 H          -0.4861   -1.9613    0.6003 H       1  UNL1        0.0000
     36 H           0.8714    3.0389   -0.9297 H       1  UNL1        0.0000
     37 H          -6.1939    0.7378   -0.1978 H       1  UNL1        0.0000
     38 H          -6.9649   -1.5301    0.4968 H       1  UNL1        0.0000
@<TRIPOS>BOND
     1     1     2    1
     2     2     3    2
     3     3     4    1
     4     4     5    2
     5     5     6    1
     6     6     7   ar
     7     7     8   ar
     8     8     9   ar
     9     9    10   ar
    10    10    11   ar
    11    11    12   ar
    12    12    13   ar
    13    13    14   ar
    14    11    15   ar
    15    15    16   ar
    16    16    17   ar
    17    17    18   ar
    18    18    19   ar
    19    19    20   ar
    20    20    21   ar
    21    21    22   ar
    22    22    23   ar
    23    23    24   ar
    24    24    25   ar
    25    25    26   ar
    26    26    27   ar
    27    27    28   ar
    28     5     1    1
    29    14     6   ar
    30    19    15   ar
    31    28    20   ar
    32    12     8   ar
    33    27    23   ar
    34    28    10   ar
    35     1    29    1
    36     1    30    1
    37     2    31    1
    38     3    32    1
    39     4    33    1
    40     7    34    1
    41     9    35    1
    42    13    36    1
    43    21    37    1
    44    22    38    1
