@<TRIPOS>MOLECULE
*****
 36 39 0 0 0
SMALL
GASTEIGER

@<TRIPOS>ATOM
      1 C          -3.5802    2.8674   -0.5272 C.3     1  UNL1       -0.0361
      2 C          -3.4878    1.4008   -0.3377 C.ar    1  UNL1       -0.0050
      3 C          -4.5337    0.5040   -0.2668 C.ar    1  UNL1        0.0960
      4 O          -4.0792   -0.7605   -0.0874 O.2     1  UNL1       -0.4623
      5 C          -2.7187   -0.6986   -0.0395 C.ar    1  UNL1        0.1415
      6 C          -1.8635   -1.7880    0.1381 C.ar    1  UNL1        0.0353
      7 C          -2.3392   -3.1966    0.3055 C.3     1  UNL1       -0.0327
      8 C          -0.4922   -1.4546    0.1529 C.ar    1  UNL1        0.1457
      9 O           0.4002   -2.5351    0.3464 O.2     1  UNL1       -0.4216
     10 C           1.7705   -2.3666    0.4204 C.ar    1  UNL1        0.3407
     11 O           2.5214   -3.3182    0.6058 O.2     1  UNL1       -0.2449
     12 C           2.2832   -0.9848    0.2525 C.ar    1  UNL1        0.0408
     13 C           1.4638    0.0611    0.0280 C.ar    1  UNL1       -0.0267
     14 C           0.0047   -0.1551   -0.0018 C.ar    1  UNL1        0.0221
     15 C          -0.9178    0.8934   -0.1689 C.ar    1  UNL1       -0.0398
     16 C          -2.3010    0.6179   -0.1907 C.ar    1  UNL1        0.0241
     17 C           2.0068    1.4560   -0.1963 C.3     1  UNL1       -0.0265
     18 C           3.5178    1.5098   -0.4348 C.3     1  UNL1       -0.0487
     19 C           4.2539    0.5917    0.5273 C.3     1  UNL1       -0.0485
     20 C           3.7824   -0.8517    0.3586 C.3     1  UNL1       -0.0206
     21 H          -4.6218    3.1938   -0.6117 H       1  UNL1        0.0279
     22 H          -3.0558    3.1691   -1.4395 H       1  UNL1        0.0279
     23 H          -3.1288    3.3920    0.3210 H       1  UNL1        0.0279
     24 H          -5.6090    0.6052   -0.3235 H       1  UNL1        0.1032
     25 H          -2.0218   -3.5905    1.2763 H       1  UNL1        0.0280
     26 H          -3.4308   -3.2611    0.2590 H       1  UNL1        0.0280
     27 H          -1.9330   -3.8306   -0.4890 H       1  UNL1        0.0280
     28 H          -0.5976    1.9238   -0.2786 H       1  UNL1        0.0632
     29 H           1.5276    1.9196   -1.0669 H       1  UNL1        0.0313
     30 H           1.7640    2.0708    0.6800 H       1  UNL1        0.0313
     31 H           3.8724    2.5404   -0.3204 H       1  UNL1        0.0268
     32 H           3.7383    1.2104   -1.4674 H       1  UNL1        0.0268
     33 H           4.0766    0.9217    1.5588 H       1  UNL1        0.0269
     34 H           5.3344    0.6503    0.3544 H       1  UNL1        0.0269
     35 H           4.1597   -1.4309    1.2101 H       1  UNL1        0.0315
     36 H           4.2341   -1.2763   -0.5470 H       1  UNL1        0.0315
@<TRIPOS>BOND
     1     1     2    1
     2     2     3   ar
     3     3     4   ar
     4     4     5   ar
     5     5     6   ar
     6     6     7    1
     7     6     8   ar
     8     8     9   ar
     9     9    10   ar
    10    10    11    2
    11    10    12   ar
    12    12    13   ar
    13    13    14   ar
    14    14    15   ar
    15    15    16   ar
    16    13    17    1
    17    17    18    1
    18    18    19    1
    19    19    20    1
    20    16     2   ar
    21    16     5   ar
    22    14     8   ar
    23    20    12    1
    24     1    21    1
    25     1    22    1
    26     1    23    1
    27     3    24    1
    28     7    25    1
    29     7    26    1
    30     7    27    1
    31    15    28    1
    32    17    29    1
    33    17    30    1
    34    18    31    1
    35    18    32    1
    36    19    33    1
    37    19    34    1
    38    20    35    1
    39    20    36    1
