@<TRIPOS>MOLECULE
*****
 33 36 0 0 0
SMALL
GASTEIGER

@<TRIPOS>ATOM
      1 C           4.1167    1.2079    1.6982 C.3     1  UNL1       -0.0361
      2 C           3.7965    0.7451    0.3275 C.ar    1  UNL1       -0.0050
      3 C           4.6786    0.5773   -0.7214 C.ar    1  UNL1        0.0960
      4 O           4.0372    0.1380   -1.8335 O.2     1  UNL1       -0.4625
      5 C           2.7220    0.0168   -1.5113 C.ar    1  UNL1        0.1386
      6 C           1.7175   -0.4103   -2.3690 C.ar    1  UNL1        0.0243
      7 C           0.4323   -0.4588   -1.8170 C.ar    1  UNL1        0.1429
      8 O          -0.5803   -0.9065   -2.6886 O.2     1  UNL1       -0.4218
      9 C          -1.8942   -1.0391   -2.2760 C.ar    1  UNL1        0.3407
     10 O          -2.7640   -1.4436   -3.0401 O.2     1  UNL1       -0.2449
     11 C          -2.2002   -0.6588   -0.8736 C.ar    1  UNL1        0.0408
     12 C          -1.2553   -0.1929   -0.0331 C.ar    1  UNL1       -0.0267
     13 C           0.1409   -0.1024   -0.4975 C.ar    1  UNL1        0.0218
     14 C           1.2016    0.3169    0.3294 C.ar    1  UNL1       -0.0398
     15 C           2.5145    0.3800   -0.1870 C.ar    1  UNL1        0.0238
     16 C          -1.5929    0.2413    1.3764 C.3     1  UNL1       -0.0265
     17 C          -3.0931    0.3813    1.6454 C.3     1  UNL1       -0.0487
     18 C          -3.8659   -0.7786    1.0386 C.3     1  UNL1       -0.0485
     19 C          -3.6431   -0.8415   -0.4717 C.3     1  UNL1       -0.0206
     20 H           5.1854    1.4183    1.8086 H       1  UNL1        0.0279
     21 H           3.8444    0.4439    2.4334 H       1  UNL1        0.0279
     22 H           3.5653    2.1244    1.9312 H       1  UNL1        0.0279
     23 H           5.7451    0.7212   -0.8298 H       1  UNL1        0.1032
     24 H           1.9221   -0.6896   -3.3944 H       1  UNL1        0.0692
     25 H           1.0421    0.5926    1.3661 H       1  UNL1        0.0632
     26 H          -1.1733   -0.4912    2.0780 H       1  UNL1        0.0313
     27 H          -1.1338    1.2117    1.6002 H       1  UNL1        0.0313
     28 H          -3.2708    0.4304    2.7257 H       1  UNL1        0.0268
     29 H          -3.4568    1.3255    1.2201 H       1  UNL1        0.0268
     30 H          -3.5404   -1.7191    1.5011 H       1  UNL1        0.0269
     31 H          -4.9358   -0.6724    1.2503 H       1  UNL1        0.0269
     32 H          -4.0212   -1.8075   -0.8278 H       1  UNL1        0.0315
     33 H          -4.2412   -0.0606   -0.9584 H       1  UNL1        0.0315
@<TRIPOS>BOND
     1     1     2    1
     2     2     3   ar
     3     3     4   ar
     4     4     5   ar
     5     5     6   ar
     6     6     7   ar
     7     7     8   ar
     8     8     9   ar
     9     9    10    2
    10     9    11   ar
    11    11    12   ar
    12    12    13   ar
    13    13    14   ar
    14    14    15   ar
    15    12    16    1
    16    16    17    1
    17    17    18    1
    18    18    19    1
    19    15     2   ar
    20    15     5   ar
    21    13     7   ar
    22    19    11    1
    23     1    20    1
    24     1    21    1
    25     1    22    1
    26     3    23    1
    27     6    24    1
    28    14    25    1
    29    16    26    1
    30    16    27    1
    31    17    28    1
    32    17    29    1
    33    18    30    1
    34    18    31    1
    35    19    32    1
    36    19    33    1
