@<TRIPOS>MOLECULE
*****
 36 39 0 0 0
SMALL
GASTEIGER

@<TRIPOS>ATOM
      1 C           6.6640    1.0531    0.7822 C.3     1  UNL1       -0.0392
      2 C           5.5786    0.4571   -0.0476 C.ar    1  UNL1       -0.0428
      3 C           5.7378   -0.0382   -1.3245 C.ar    1  UNL1       -0.0208
      4 S           4.2866   -0.6491   -1.9796 S.2     1  UNL1       -0.0959
      5 C           3.3891   -0.2710   -0.5621 C.ar    1  UNL1        0.0262
      6 C           1.9713   -0.5605   -0.4556 C.ar    1  UNL1        0.0268
      7 C           1.1323   -1.0944   -1.4181 C.ar    1  UNL1       -0.0429
      8 C          -0.2273   -1.2588   -0.9816 C.ar    1  UNL1       -0.0345
      9 C          -1.3049   -1.8216   -1.8504 C.3     1  UNL1       -0.0386
     10 C          -0.3776   -0.8280    0.3255 C.ar    1  UNL1        0.0301
     11 C          -1.5794   -0.8075    1.1115 C.ar    1  UNL1        0.0390
     12 S          -1.7664   -1.8075    2.5166 S.2     1  UNL1       -0.0946
     13 C          -3.3629   -1.2280    2.8359 C.ar    1  UNL1       -0.0108
     14 C          -3.7124   -0.3097    1.8897 C.ar    1  UNL1        0.0570
     15 C          -2.7192   -0.0763    0.9217 C.ar    1  UNL1        0.0646
     16 C          -3.2159    0.9045   -0.0085 C.2     1  UNL1        0.2547
     17 O          -2.6484    1.3359   -0.9972 O.2     1  UNL1       -0.2695
     18 N          -4.4815    1.2241    0.4622 N.am    1  UNL1       -0.2372
     19 C          -5.3480    2.1586   -0.2075 C.3     1  UNL1        0.0115
     20 C          -4.8533    0.5149    1.5920 C.2     1  UNL1        0.2541
     21 O          -5.9030    0.5488    2.2097 O.2     1  UNL1       -0.2695
     22 S           1.0914   -0.2541    0.9850 S.2     1  UNL1       -0.0869
     23 C           4.2172    0.3145    0.3825 C.ar    1  UNL1       -0.0435
     24 H           7.5379    1.3063    0.1730 H       1  UNL1        0.0278
     25 H           6.9784    0.3459    1.5564 H       1  UNL1        0.0278
     26 H           6.3166    1.9697    1.2699 H       1  UNL1        0.0278
     27 H           6.6452   -0.0714   -1.9123 H       1  UNL1        0.0696
     28 H           1.4665   -1.3650   -2.4131 H       1  UNL1        0.0632
     29 H          -1.9749   -2.4724   -1.2797 H       1  UNL1        0.0278
     30 H          -0.8793   -2.4194   -2.6633 H       1  UNL1        0.0278
     31 H          -1.8947   -1.0153   -2.2964 H       1  UNL1        0.0278
     32 H          -3.9325   -1.5896    3.6816 H       1  UNL1        0.0701
     33 H          -6.1332    2.5095    0.4672 H       1  UNL1        0.0434
     34 H          -4.7634    3.0057   -0.5774 H       1  UNL1        0.0434
     35 H          -5.8063    1.6508   -1.0614 H       1  UNL1        0.0434
     36 H           3.8716    0.6381    1.3575 H       1  UNL1        0.0632
@<TRIPOS>BOND
     1     1     2    1
     2     2     3   ar
     3     3     4   ar
     4     4     5   ar
     5     5     6    1
     6     6     7   ar
     7     7     8   ar
     8     8     9    1
     9     8    10   ar
    10    10    11    1
    11    11    12   ar
    12    12    13   ar
    13    13    14   ar
    14    14    15   ar
    15    15    16    1
    16    16    17    2
    17    16    18   am
    18    18    19    1
    19    18    20   am
    20    20    21    2
    21    10    22   ar
    22     5    23   ar
    23    23     2   ar
    24    22     6   ar
    25    15    11   ar
    26    20    14    1
    27     1    24    1
    28     1    25    1
    29     1    26    1
    30     3    27    1
    31     7    28    1
    32     9    29    1
    33     9    30    1
    34     9    31    1
    35    13    32    1
    36    19    33    1
    37    19    34    1
    38    19    35    1
    39    23    36    1
