@<TRIPOS>MOLECULE
*****
 40 45 0 0 0
SMALL
GASTEIGER

@<TRIPOS>ATOM
      1 C          -7.7172    0.1445    0.6813 C.3     1  UNL1       -0.0392
      2 C          -6.4126   -0.3842    0.1914 C.ar    1  UNL1       -0.0428
      3 C          -6.2501   -1.5597   -0.5130 C.ar    1  UNL1       -0.0208
      4 S          -4.6227   -1.8596   -0.9313 S.2     1  UNL1       -0.0963
      5 C          -4.0849   -0.4162   -0.1739 C.ar    1  UNL1        0.0217
      6 C          -2.6646   -0.0659   -0.1900 C.ar    1  UNL1        0.0175
      7 C          -1.6356   -0.9896    0.0932 C.ar    1  UNL1       -0.0415
      8 C          -0.2466   -0.6541    0.0828 C.ar    1  UNL1        0.0131
      9 C           0.7701   -1.6267    0.3740 C.ar    1  UNL1        0.1082
     10 N           0.5564   -2.9193    0.6807 N.ar    1  UNL1       -0.1901
     11 S           2.0389   -3.6093    0.9338 S.2     1  UNL1        0.1165
     12 N           3.0301   -2.3145    0.6612 N.ar    1  UNL1       -0.1901
     13 C           2.2454   -1.2630    0.3603 C.ar    1  UNL1        0.1087
     14 C           2.6649    0.0664    0.0600 C.ar    1  UNL1        0.0175
     15 C           4.0852    0.4168    0.0442 C.ar    1  UNL1        0.0217
     16 C           5.1519   -0.2705   -0.5069 C.ar    1  UNL1       -0.0440
     17 C           6.4131    0.3847   -0.3201 C.ar    1  UNL1       -0.0428
     18 C           7.7164   -0.1460   -0.8116 C.3     1  UNL1       -0.0392
     19 C           6.2504    1.5604    0.3837 C.ar    1  UNL1       -0.0208
     20 S           4.6229    1.8602    0.8017 S.2     1  UNL1       -0.0963
     21 C           1.6359    0.9901   -0.2232 C.ar    1  UNL1       -0.0415
     22 C           0.2470    0.6546   -0.2129 C.ar    1  UNL1        0.0131
     23 C          -0.7698    1.6272   -0.5040 C.ar    1  UNL1        0.1082
     24 N          -0.5561    2.9199   -0.8105 N.ar    1  UNL1       -0.1901
     25 S          -2.0385    3.6098   -1.0637 S.2     1  UNL1        0.1165
     26 N          -3.0297    2.3150   -0.7911 N.ar    1  UNL1       -0.1901
     27 C          -2.2450    1.2635   -0.4903 C.ar    1  UNL1        0.1087
     28 C          -5.1514    0.2711    0.3775 C.ar    1  UNL1       -0.0440
     29 H          -8.4423   -0.6633    0.8249 H       1  UNL1        0.0278
     30 H          -8.1308    0.8553   -0.0413 H       1  UNL1        0.0278
     31 H          -7.5931    0.6586    1.6401 H       1  UNL1        0.0278
     32 H          -7.0162   -2.2637   -0.8088 H       1  UNL1        0.0696
     33 H          -1.9125   -2.0164    0.3434 H       1  UNL1        0.0631
     34 H           5.0380   -1.2148   -1.0278 H       1  UNL1        0.0632
     35 H           7.6169   -0.5270   -1.8333 H       1  UNL1        0.0278
     36 H           8.4869    0.6320   -0.8160 H       1  UNL1        0.0278
     37 H           8.0573   -0.9637   -0.1684 H       1  UNL1        0.0278
     38 H           7.0161    2.2649    0.6794 H       1  UNL1        0.0696
     39 H           1.9129    2.0169   -0.4734 H       1  UNL1        0.0631
     40 H          -5.0371    1.2156    0.8981 H       1  UNL1        0.0632
@<TRIPOS>BOND
     1     1     2    1
     2     2     3   ar
     3     3     4   ar
     4     4     5   ar
     5     5     6    1
     6     6     7   ar
     7     7     8   ar
     8     8     9   ar
     9     9    10   ar
    10    10    11   ar
    11    11    12   ar
    12    12    13   ar
    13    13    14   ar
    14    14    15    1
    15    15    16   ar
    16    16    17   ar
    17    17    18    1
    18    17    19   ar
    19    19    20   ar
    20    14    21   ar
    21    21    22   ar
    22    22    23   ar
    23    23    24   ar
    24    24    25   ar
    25    25    26   ar
    26    26    27   ar
    27     5    28   ar
    28    28     2   ar
    29    27     6   ar
    30    22     8   ar
    31    27    23   ar
    32    13     9   ar
    33    20    15   ar
    34     1    29    1
    35     1    30    1
    36     1    31    1
    37     3    32    1
    38     7    33    1
    39    16    34    1
    40    18    35    1
    41    18    36    1
    42    18    37    1
    43    19    38    1
    44    21    39    1
    45    28    40    1
