@<TRIPOS>MOLECULE
*****
 33 36 0 0 0
SMALL
GASTEIGER

@<TRIPOS>ATOM
      1 C          -6.4428    1.0619    0.3056 C.3     1  UNL1       -0.0392
      2 C          -5.1700    0.4074    0.7216 C.ar    1  UNL1       -0.0428
      3 C          -5.0650   -0.6106    1.6472 C.ar    1  UNL1       -0.0208
      4 S          -3.4554   -1.1297    1.8782 S.2     1  UNL1       -0.0963
      5 C          -2.8475    0.0066    0.7440 C.ar    1  UNL1        0.0217
      6 C          -1.4124    0.0679    0.4633 C.ar    1  UNL1        0.0169
      7 C          -0.4224    0.0282    1.4726 C.ar    1  UNL1       -0.0508
      8 C           0.9647    0.0932    1.2093 C.ar    1  UNL1       -0.0508
      9 C           1.4932    0.2131   -0.0901 C.ar    1  UNL1        0.0169
     10 C           2.9246    0.2714   -0.3393 C.ar    1  UNL1        0.0217
     11 C           3.8662   -0.7280   -0.1938 C.ar    1  UNL1       -0.0440
     12 C           5.1964   -0.2949   -0.5077 C.ar    1  UNL1       -0.0428
     13 C           6.4040   -1.1672   -0.4559 C.3     1  UNL1       -0.0392
     14 C           5.2013    1.0367   -0.8754 C.ar    1  UNL1       -0.0208
     15 S           3.6457    1.7428   -0.8297 S.2     1  UNL1       -0.0963
     16 C           0.5567    0.2518   -1.1624 C.ar    1  UNL1        0.1087
     17 N           0.8301    0.3364   -2.4770 N.ar    1  UNL1       -0.1901
     18 S          -0.6181    0.3436   -3.2749 S.2     1  UNL1        0.1165
     19 N          -1.6724    0.2323   -2.0048 N.ar    1  UNL1       -0.1901
     20 C          -0.9360    0.1822   -0.8787 C.ar    1  UNL1        0.1087
     21 C          -3.8786    0.7558    0.2060 C.ar    1  UNL1       -0.0440
     22 H          -7.3129    0.5517    0.7315 H       1  UNL1        0.0278
     23 H          -6.5419    1.0464   -0.7846 H       1  UNL1        0.0278
     24 H          -6.4599    2.1038    0.6410 H       1  UNL1        0.0278
     25 H          -5.8636   -1.0836    2.2025 H       1  UNL1        0.0696
     26 H          -0.7322   -0.0451    2.5163 H       1  UNL1        0.0625
     27 H           1.6513    0.0599    2.0565 H       1  UNL1        0.0625
     28 H           3.6138   -1.7356    0.1163 H       1  UNL1        0.0632
     29 H           6.5667   -1.6435   -1.4282 H       1  UNL1        0.0278
     30 H           7.2971   -0.5871   -0.2006 H       1  UNL1        0.0278
     31 H           6.2871   -1.9526    0.2983 H       1  UNL1        0.0278
     32 H           6.0507    1.6380   -1.1703 H       1  UNL1        0.0696
     33 H          -3.7183    1.5295   -0.5369 H       1  UNL1        0.0632
@<TRIPOS>BOND
     1     1     2    1
     2     2     3   ar
     3     3     4   ar
     4     4     5   ar
     5     5     6    1
     6     6     7   ar
     7     7     8   ar
     8     8     9   ar
     9     9    10    1
    10    10    11   ar
    11    11    12   ar
    12    12    13    1
    13    12    14   ar
    14    14    15   ar
    15     9    16   ar
    16    16    17   ar
    17    17    18   ar
    18    18    19   ar
    19    19    20   ar
    20     5    21   ar
    21    21     2   ar
    22    20     6   ar
    23    15    10   ar
    24    20    16   ar
    25     1    22    1
    26     1    23    1
    27     1    24    1
    28     3    25    1
    29     7    26    1
    30     8    27    1
    31    11    28    1
    32    13    29    1
    33    13    30    1
    34    13    31    1
    35    14    32    1
    36    21    33    1
