@<TRIPOS>MOLECULE
*****
 49 54 0 0 0
SMALL
GASTEIGER

@<TRIPOS>ATOM
      1 C          10.7674   -0.2949    0.6821 C.3     1  UNL1        0.0000
      2 C           9.4407    0.2828    1.0415 C.ar    1  UNL1        0.0000
      3 C           9.2391    1.3138    1.9358 C.ar    1  UNL1        0.0000
      4 S           7.5920    1.7270    2.1078 S.2     1  UNL1        0.0000
      5 C           7.0933    0.5298    0.9829 C.ar    1  UNL1        0.0000
      6 C           5.6815    0.3467    0.6518 C.ar    1  UNL1        0.0000
      7 N           4.7498    1.1283    1.2325 N.ar    1  UNL1        0.0000
      8 N           3.4391    0.9360    0.9038 N.ar    1  UNL1        0.0000
      9 C           3.1328   -0.0269    0.0122 C.ar    1  UNL1        0.0000
     10 C           1.7383   -0.2589   -0.3582 C.ar    1  UNL1        0.0000
     11 C           1.2246   -1.1893   -1.2456 C.ar    1  UNL1        0.0000
     12 C          -0.2047   -1.1406   -1.3714 C.ar    1  UNL1        0.0000
     13 C          -0.9869   -2.0375   -2.2760 C.3     1  UNL1        0.0000
     14 C          -0.7371   -0.1537   -0.5565 C.ar    1  UNL1        0.0000
     15 C          -2.1278    0.1836   -0.3867 C.ar    1  UNL1        0.0000
     16 C          -3.1338   -0.6579    0.0740 C.ar    1  UNL1        0.0000
     17 C          -4.3524    0.0273    0.0832 C.ar    1  UNL1        0.0000
     18 C          -4.2911    1.3330   -0.3572 C.ar    1  UNL1        0.0000
     19 S          -2.7244    1.7606   -0.7961 S.2     1  UNL1        0.0000
     20 C          -5.5186    2.0711   -0.3651 C.ar    1  UNL1        0.0000
     21 S          -5.8718    3.6534   -0.8199 S.2     1  UNL1        0.0000
     22 C          -7.5449    3.4321   -0.4251 C.ar    1  UNL1        0.0000
     23 C          -7.8259    2.1609    0.0495 C.ar    1  UNL1        0.0000
     24 C          -6.6482    1.4082    0.0710 C.ar    1  UNL1        0.0000
     25 SI         -6.1617   -0.3789    0.5691 Si      1  UNL1        0.0000
     26 C          -6.9225   -1.6604   -0.5175 C.3     1  UNL1        0.0000
     27 C          -6.3638   -0.7018    2.3736 C.3     1  UNL1        0.0000
     28 S           0.4741    0.6734    0.3244 S.2     1  UNL1        0.0000
     29 N           4.0655   -0.8113   -0.5687 N.ar    1  UNL1        0.0000
     30 N           5.3750   -0.6193   -0.2402 N.ar    1  UNL1        0.0000
     31 C           8.1917   -0.1629    0.4971 C.ar    1  UNL1        0.0000
     32 H          10.7809   -1.3712    0.8819 H       1  UNL1        0.0000
     33 H          11.5750    0.1675    1.2587 H       1  UNL1        0.0000
     34 H          10.9743   -0.1366   -0.3813 H       1  UNL1        0.0000
     35 H           9.9859    1.8523    2.5038 H       1  UNL1        0.0000
     36 H           1.8529   -1.8844   -1.7932 H       1  UNL1        0.0000
     37 H          -1.6861   -1.4589   -2.8886 H       1  UNL1        0.0000
     38 H          -1.5532   -2.7689   -1.6903 H       1  UNL1        0.0000
     39 H          -0.3263   -2.5872   -2.9547 H       1  UNL1        0.0000
     40 H          -2.9668   -1.6826    0.3826 H       1  UNL1        0.0000
     41 H          -8.2322    4.2553   -0.5641 H       1  UNL1        0.0000
     42 H          -8.8145    1.8353    0.3481 H       1  UNL1        0.0000
     43 H          -7.9992   -1.7422   -0.3388 H       1  UNL1        0.0000
     44 H          -6.4809   -2.6452   -0.3362 H       1  UNL1        0.0000
     45 H          -6.7794   -1.4233   -1.5765 H       1  UNL1        0.0000
     46 H          -7.4214   -0.7463    2.6515 H       1  UNL1        0.0000
     47 H          -5.8961    0.0831    2.9764 H       1  UNL1        0.0000
     48 H          -5.9064   -1.6545    2.6584 H       1  UNL1        0.0000
     49 H           8.1045   -0.9659   -0.2278 H       1  UNL1        0.0000
@<TRIPOS>BOND
     1     1     2    1
     2     2     3   ar
     3     3     4   ar
     4     4     5   ar
     5     5     6    1
     6     6     7   ar
     7     7     8   ar
     8     8     9   ar
     9     9    10    1
    10    10    11   ar
    11    11    12   ar
    12    12    13    1
    13    12    14   ar
    14    14    15    1
    15    15    16   ar
    16    16    17   ar
    17    17    18   ar
    18    18    19   ar
    19    18    20    1
    20    20    21   ar
    21    21    22   ar
    22    22    23   ar
    23    23    24   ar
    24    24    25    1
    25    25    26    1
    26    25    27    1
    27    14    28   ar
    28     9    29   ar
    29    29    30   ar
    30     5    31   ar
    31    31     2   ar
    32    30     6   ar
    33    28    10   ar
    34    19    15   ar
    35    24    20   ar
    36    25    17    1
    37     1    32    1
    38     1    33    1
    39     1    34    1
    40     3    35    1
    41    11    36    1
    42    13    37    1
    43    13    38    1
    44    13    39    1
    45    16    40    1
    46    22    41    1
    47    23    42    1
    48    26    43    1
    49    26    44    1
    50    26    45    1
    51    27    46    1
    52    27    47    1
    53    27    48    1
    54    31    49    1
