@<TRIPOS>MOLECULE
*****
 49 54 0 0 0
SMALL
GASTEIGER

@<TRIPOS>ATOM
      1 C           9.7314    1.5351   -2.5132 C.3     1  UNL1       -0.0392
      2 C           8.9341    0.7916   -1.4959 C.ar    1  UNL1       -0.0428
      3 C           9.4621   -0.0190   -0.5122 C.ar    1  UNL1       -0.0207
      4 S           8.2639   -0.7139    0.4851 S.2     1  UNL1       -0.0932
      5 C           6.9919    0.0569   -0.3724 C.ar    1  UNL1        0.0600
      6 C           5.5954   -0.1391    0.0118 C.ar    1  UNL1        0.2099
      7 N           4.6570    0.4997   -0.7178 N.ar    1  UNL1       -0.1247
      8 N           3.3453    0.3354   -0.3816 N.ar    1  UNL1       -0.1247
      9 C           3.0434   -0.4580    0.6659 C.ar    1  UNL1        0.2099
     10 C           1.6470   -0.6557    1.0482 C.ar    1  UNL1        0.0606
     11 C           1.1347   -1.4312    2.0734 C.ar    1  UNL1       -0.0403
     12 C          -0.2987   -1.3998    2.1647 C.ar    1  UNL1       -0.0345
     13 C          -1.0676   -2.1805    3.1825 C.3     1  UNL1       -0.0386
     14 C          -0.8368   -0.5680    1.1936 C.ar    1  UNL1        0.0295
     15 C          -2.2222   -0.2453    0.9513 C.ar    1  UNL1        0.0271
     16 C          -2.9125   -0.3684   -0.2521 C.ar    1  UNL1       -0.0418
     17 C          -4.2530    0.0586   -0.1141 C.ar    1  UNL1       -0.0215
     18 C          -4.5185    0.4897    1.1711 C.ar    1  UNL1        0.0308
     19 S          -3.2253    0.4050    2.2107 S.2     1  UNL1       -0.0869
     20 C          -5.8691    0.9056    1.2530 C.ar    1  UNL1        0.0302
     21 S          -6.8656    1.5197    2.4350 S.2     1  UNL1       -0.0958
     22 C          -8.1787    1.5928    1.3060 C.ar    1  UNL1       -0.0234
     23 C          -7.8268    1.1433    0.0415 C.ar    1  UNL1       -0.0501
     24 C          -6.4715    0.7423    0.0188 C.ar    1  UNL1       -0.0221
     25 C          -5.4902    0.1725   -1.0177 C.3     1  UNL1        0.0173
     26 C          -5.2576    1.1500   -2.1713 C.3     1  UNL1       -0.0517
     27 C          -5.9422   -1.1963   -1.5296 C.3     1  UNL1       -0.0517
     28 S           0.3780    0.1121    0.1936 S.2     1  UNL1       -0.0842
     29 N           3.9813   -1.0982    1.3944 N.ar    1  UNL1       -0.1247
     30 N           5.2931   -0.9339    1.0581 N.ar    1  UNL1       -0.1247
     31 C           7.5041    0.8291   -1.4035 C.ar    1  UNL1       -0.0409
     32 H           9.7529    2.6020   -2.2694 H       1  UNL1        0.0278
     33 H          10.7633    1.1715   -2.5544 H       1  UNL1        0.0278
     34 H           9.2918    1.4153   -3.5087 H       1  UNL1        0.0278
     35 H          10.5049   -0.2408   -0.3272 H       1  UNL1        0.0696
     36 H           1.7656   -2.0114    2.7394 H       1  UNL1        0.0633
     37 H          -0.4597   -2.9946    3.5915 H       1  UNL1        0.0278
     38 H          -1.9631   -2.6302    2.7418 H       1  UNL1        0.0278
     39 H          -1.3663   -1.5336    4.0132 H       1  UNL1        0.0278
     40 H          -2.4675   -0.7470   -1.1642 H       1  UNL1        0.0632
     41 H          -9.1398    1.9634    1.6350 H       1  UNL1        0.0693
     42 H          -8.5110    1.1131   -0.7970 H       1  UNL1        0.0626
     43 H          -4.9329    2.1335   -1.8103 H       1  UNL1        0.0241
     44 H          -6.1746    1.3012   -2.7522 H       1  UNL1        0.0241
     45 H          -4.4833    0.7798   -2.8530 H       1  UNL1        0.0241
     46 H          -6.8806   -1.1184   -2.0906 H       1  UNL1        0.0241
     47 H          -6.1103   -1.9017   -0.7067 H       1  UNL1        0.0241
     48 H          -5.1891   -1.6392   -2.1914 H       1  UNL1        0.0241
     49 H           6.8734    1.4050   -2.0732 H       1  UNL1        0.0633
@<TRIPOS>BOND
     1     1     2    1
     2     2     3   ar
     3     3     4   ar
     4     4     5   ar
     5     5     6    1
     6     6     7   ar
     7     7     8   ar
     8     8     9   ar
     9     9    10    1
    10    10    11   ar
    11    11    12   ar
    12    12    13    1
    13    12    14   ar
    14    14    15    1
    15    15    16   ar
    16    16    17   ar
    17    17    18   ar
    18    18    19   ar
    19    18    20    1
    20    20    21   ar
    21    21    22   ar
    22    22    23   ar
    23    23    24   ar
    24    24    25    1
    25    25    26    1
    26    25    27    1
    27    14    28   ar
    28     9    29   ar
    29    29    30   ar
    30     5    31   ar
    31    31     2   ar
    32    30     6   ar
    33    28    10   ar
    34    19    15   ar
    35    24    20   ar
    36    25    17    1
    37     1    32    1
    38     1    33    1
    39     1    34    1
    40     3    35    1
    41    11    36    1
    42    13    37    1
    43    13    38    1
    44    13    39    1
    45    16    40    1
    46    22    41    1
    47    23    42    1
    48    26    43    1
    49    26    44    1
    50    26    45    1
    51    27    46    1
    52    27    47    1
    53    27    48    1
    54    31    49    1
