@<TRIPOS>MOLECULE
*****
 24 26 0 0 0
SMALL
GASTEIGER

@<TRIPOS>ATOM
      1 C          -4.4640    1.3661   -0.1815 C.3     1  UNL1       -0.0159
      2 C          -3.3903    0.3369   -0.2055 C.ar    1  UNL1        0.0759
      3 N          -2.1074    0.5976   -0.0813 N.ar    1  UNL1       -0.2443
      4 C          -1.3674   -0.5762   -0.1379 C.ar    1  UNL1        0.0785
      5 C           0.0905   -0.5484   -0.0264 C.ar    1  UNL1        0.0046
      6 C           0.8398   -1.7045    0.2985 C.ar    1  UNL1       -0.0489
      7 C           2.2364   -1.6589    0.4011 C.ar    1  UNL1       -0.0155
      8 C           2.8567   -0.4504    0.1789 C.ar    1  UNL1        0.1663
      9 C           2.1420    0.6810   -0.1309 C.ar    1  UNL1        0.1669
     10 C           0.7667    0.6658   -0.2380 C.ar    1  UNL1       -0.0070
     11 O           2.9419    1.7666   -0.3086 O.3     1  UNL1       -0.4526
     12 C           4.2415    1.1883   -0.0709 C.3     1  UNL1        0.2332
     13 O           4.1953   -0.2209    0.2364 O.3     1  UNL1       -0.4526
     14 C          -2.1236   -1.7178   -0.3244 C.ar    1  UNL1        0.0033
     15 S          -3.7901   -1.3201   -0.4093 S.2     1  UNL1       -0.0802
     16 H          -5.0232    1.3676   -1.1225 H       1  UNL1        0.0298
     17 H          -4.0344    2.3636   -0.0437 H       1  UNL1        0.0298
     18 H          -5.1608    1.1829    0.6425 H       1  UNL1        0.0298
     19 H           0.3463   -2.6538    0.4901 H       1  UNL1        0.0625
     20 H           2.8113   -2.5432    0.6519 H       1  UNL1        0.0655
     21 H           0.2279    1.5763   -0.4819 H       1  UNL1        0.0662
     22 H           4.7117    1.7146    0.7679 H       1  UNL1        0.1166
     23 H           4.8581    1.3317   -0.9657 H       1  UNL1        0.1166
     24 H          -1.8050   -2.7446   -0.4229 H       1  UNL1        0.0715
@<TRIPOS>BOND
     1     1     2    1
     2     2     3   ar
     3     3     4   ar
     4     4     5    1
     5     5     6   ar
     6     6     7   ar
     7     7     8   ar
     8     8     9   ar
     9     9    10   ar
    10     9    11    1
    11    11    12    1
    12    12    13    1
    13     4    14   ar
    14    14    15   ar
    15    15     2   ar
    16    10     5   ar
    17    13     8    1
    18     1    16    1
    19     1    17    1
    20     1    18    1
    21     6    19    1
    22     7    20    1
    23    10    21    1
    24    12    22    1
    25    12    23    1
    26    14    24    1
