@<TRIPOS>MOLECULE
*****
 40 43 0 0 0
SMALL
GASTEIGER

@<TRIPOS>ATOM
      1 C          -1.0857   -0.0007    3.3054 C.3     1  UNL1       -0.0045
      2 C          -1.4301   -0.0835    1.8491 C.ar    1  UNL1        0.1290
      3 N          -0.3887   -0.1418    0.9836 N.ar    1  UNL1       -0.2140
      4 C          -0.6219   -0.2026   -0.3504 C.ar    1  UNL1        0.1656
      5 N           0.4186   -0.2884   -1.2754 N.pl3   1  UNL1       -0.3257
      6 C           1.7067    0.2552   -0.8589 C.3     1  UNL1        0.0145
      7 C           2.5476   -0.7983   -0.1287 C.3     1  UNL1       -0.0121
      8 C           3.8999   -0.2546    0.2654 C.ar    1  UNL1       -0.0459
      9 C           4.0489    0.4718    1.4547 C.ar    1  UNL1       -0.0585
     10 C           5.2923    0.9943    1.8123 C.ar    1  UNL1       -0.0615
     11 C           6.3958    0.7985    0.9840 C.ar    1  UNL1       -0.0617
     12 C           6.2570    0.0806   -0.2027 C.ar    1  UNL1       -0.0615
     13 C           5.0142   -0.4428   -0.5626 C.ar    1  UNL1       -0.0585
     14 C          -1.9567   -0.1822   -0.7345 C.ar    1  UNL1        0.1939
     15 O          -2.4659   -0.2190   -1.9991 O.2     1  UNL1       -0.4497
     16 C          -3.8232   -0.1725   -1.8687 C.ar    1  UNL1        0.1380
     17 C          -4.7338   -0.1914   -2.9231 C.ar    1  UNL1       -0.0187
     18 C          -6.0892   -0.1335   -2.5808 C.ar    1  UNL1       -0.0582
     19 C          -6.4965   -0.0604   -1.2458 C.ar    1  UNL1       -0.0609
     20 C          -5.5577   -0.0431   -0.2048 C.ar    1  UNL1       -0.0489
     21 C          -4.1891   -0.1011   -0.5268 C.ar    1  UNL1        0.0464
     22 C          -2.9715   -0.1066    0.2019 C.ar    1  UNL1        0.1221
     23 N          -2.7392   -0.0502    1.5332 N.ar    1  UNL1       -0.2284
     24 H          -1.0054    1.0482    3.6049 H       1  UNL1        0.0308
     25 H          -0.1321   -0.4990    3.5055 H       1  UNL1        0.0308
     26 H          -1.8580   -0.4839    3.9117 H       1  UNL1        0.0308
     27 H           0.1060    0.0006   -2.1986 H       1  UNL1        0.1476
     28 H           2.2431    0.5673   -1.7642 H       1  UNL1        0.0465
     29 H           1.5835    1.1656   -0.2575 H       1  UNL1        0.0465
     30 H           2.0356   -1.1641    0.7693 H       1  UNL1        0.0328
     31 H           2.6771   -1.6810   -0.7685 H       1  UNL1        0.0328
     32 H           3.1940    0.6320    2.1087 H       1  UNL1        0.0620
     33 H           5.3997    1.5538    2.7378 H       1  UNL1        0.0618
     34 H           7.3643    1.2046    1.2636 H       1  UNL1        0.0618
     35 H           7.1177   -0.0726   -0.8484 H       1  UNL1        0.0618
     36 H           4.9212   -1.0003   -1.4919 H       1  UNL1        0.0620
     37 H          -4.4039   -0.2489   -3.9535 H       1  UNL1        0.0654
     38 H          -6.8392   -0.1462   -3.3694 H       1  UNL1        0.0619
     39 H          -7.5577   -0.0169   -1.0086 H       1  UNL1        0.0618
     40 H          -5.8776    0.0131    0.8318 H       1  UNL1        0.0625
@<TRIPOS>BOND
     1     1     2    1
     2     2     3   ar
     3     3     4   ar
     4     4     5    1
     5     5     6    1
     6     6     7    1
     7     7     8    1
     8     8     9   ar
     9     9    10   ar
    10    10    11   ar
    11    11    12   ar
    12    12    13   ar
    13     4    14   ar
    14    14    15   ar
    15    15    16   ar
    16    16    17   ar
    17    17    18   ar
    18    18    19   ar
    19    19    20   ar
    20    20    21   ar
    21    21    22   ar
    22    22    23   ar
    23    23     2   ar
    24    13     8   ar
    25    22    14   ar
    26    21    16   ar
    27     1    24    1
    28     1    25    1
    29     1    26    1
    30     5    27    1
    31     6    28    1
    32     6    29    1
    33     7    30    1
    34     7    31    1
    35     9    32    1
    36    10    33    1
    37    11    34    1
    38    12    35    1
    39    13    36    1
    40    17    37    1
    41    18    38    1
    42    19    39    1
    43    20    40    1
