@<TRIPOS>MOLECULE
*****
 33 35 0 0 0
SMALL
GASTEIGER

@<TRIPOS>ATOM
      1 C          -0.8734   -2.2720   -1.0681 C.3     1  UNL1       -0.0219
      2 C          -1.0522   -0.8917   -0.5175 C.ar    1  UNL1        0.0467
      3 N           0.0557   -0.2247   -0.1286 N.ar    1  UNL1       -0.2163
      4 C          -0.1449    1.0307    0.3531 C.ar    1  UNL1        0.2762
      5 S           1.3220    1.9165    0.8722 S.O2    1  UNL1        0.0600
      6 O           1.2601    2.1054    2.3142 O.2     1  UNL1       -0.1613
      7 O           1.5035    3.0581   -0.0132 O.2     1  UNL1       -0.1613
      8 C           2.7198    0.8402    0.5832 C.ar    1  UNL1        0.0984
      9 C           3.4702    0.9746   -0.5906 C.ar    1  UNL1       -0.0363
     10 C           4.5721    0.1450   -0.7994 C.ar    1  UNL1       -0.0586
     11 C           4.9230   -0.8039    0.1633 C.ar    1  UNL1       -0.0433
     12 C           4.1755   -0.9182    1.3368 C.ar    1  UNL1        0.0428
     13 CL          4.6197   -2.0880    2.5180 Cl      1  UNL1       -0.0835
     14 C           3.0749   -0.0955    1.5600 C.ar    1  UNL1       -0.0180
     15 N          -1.3120    1.6955    0.4887 N.ar    1  UNL1       -0.2160
     16 C          -2.3640    0.9752    0.0965 C.ar    1  UNL1        0.0498
     17 C          -2.2950   -0.3135   -0.4070 C.ar    1  UNL1       -0.0049
     18 C          -3.6451   -0.8167   -0.7895 C.3     1  UNL1       -0.0239
     19 C          -4.5538    0.1558   -0.0209 C.3     1  UNL1       -0.0435
     20 C          -3.7807    1.4763    0.0982 C.3     1  UNL1       -0.0097
     21 H          -1.3995   -3.0008   -0.4441 H       1  UNL1        0.0293
     22 H           0.1862   -2.5469   -1.0907 H       1  UNL1        0.0293
     23 H          -1.2596   -2.3264   -2.0906 H       1  UNL1        0.0293
     24 H           3.2071    1.7179   -1.3408 H       1  UNL1        0.0637
     25 H           5.1606    0.2397   -1.7093 H       1  UNL1        0.0619
     26 H           5.7833   -1.4472   -0.0043 H       1  UNL1        0.0632
     27 H           2.5029   -0.1837    2.4804 H       1  UNL1        0.0651
     28 H          -3.7920   -0.7227   -1.8703 H       1  UNL1        0.0314
     29 H          -3.8175   -1.8499   -0.4758 H       1  UNL1        0.0314
     30 H          -5.5295    0.2838   -0.4997 H       1  UNL1        0.0272
     31 H          -4.7382   -0.2446    0.9859 H       1  UNL1        0.0272
     32 H          -4.0296    2.0154    1.0158 H       1  UNL1        0.0328
     33 H          -3.9494    2.1163   -0.7735 H       1  UNL1        0.0328
@<TRIPOS>BOND
     1     1     2    1
     2     2     3   ar
     3     3     4   ar
     4     4     5    1
     5     5     6    2
     6     5     7    2
     7     5     8    1
     8     8     9   ar
     9     9    10   ar
    10    10    11   ar
    11    11    12   ar
    12    12    13    1
    13    12    14   ar
    14     4    15   ar
    15    15    16   ar
    16    16    17   ar
    17    17    18    1
    18    18    19    1
    19    19    20    1
    20    17     2   ar
    21    14     8   ar
    22    20    16    1
    23     1    21    1
    24     1    22    1
    25     1    23    1
    26     9    24    1
    27    10    25    1
    28    11    26    1
    29    14    27    1
    30    18    28    1
    31    18    29    1
    32    19    30    1
    33    19    31    1
    34    20    32    1
    35    20    33    1
