@<TRIPOS>MOLECULE
*****
 40 46 0 0 0
SMALL
GASTEIGER

@<TRIPOS>ATOM
      1 SI          5.1193    1.2603   -1.0024 Si      1  UNL1        0.0000
      2 C           6.5980    0.0922   -0.9746 C.2     1  UNL1        0.0000
      3 C           6.2634   -1.1097   -0.4702 C.2     1  UNL1        0.0000
      4 C           4.8713   -1.2493   -0.0712 C.2     1  UNL1        0.0000
      5 C           4.1132   -0.1474   -0.2432 C.2     1  UNL1        0.0000
      6 C           2.6955   -0.0286    0.0277 C.ar    1  UNL1        0.0000
      7 C           1.6976   -0.6552   -0.7765 C.ar    1  UNL1        0.0000
      8 C           0.3226   -0.5013   -0.4614 C.ar    1  UNL1        0.0000
      9 N          -0.8415   -0.9778   -1.0530 N.ar    1  UNL1        0.0000
     10 C          -1.9245   -0.5231   -0.3239 C.ar    1  UNL1        0.0000
     11 C          -1.4630    0.2335    0.7194 C.ar    1  UNL1        0.0000
     12 O          -2.4792    0.7259    1.5001 O.2     1  UNL1        0.0000
     13 C          -3.6303    0.2508    0.9102 C.ar    1  UNL1        0.0000
     14 C          -4.9644    0.4674    1.3214 C.ar    1  UNL1        0.0000
     15 C          -6.0325   -0.1103    0.5792 C.ar    1  UNL1        0.0000
     16 C          -5.6057   -0.8597   -0.5224 C.ar    1  UNL1        0.0000
     17 C          -6.3961   -1.5329   -1.4219 C.ar    1  UNL1        0.0000
     18 O          -5.6120   -2.1548   -2.3689 O.2     1  UNL1        0.0000
     19 C          -4.2962   -1.8777   -2.0745 C.ar    1  UNL1        0.0000
     20 C          -4.2926   -1.0992   -0.9645 C.ar    1  UNL1        0.0000
     21 C          -3.2952   -0.5008   -0.1877 C.ar    1  UNL1        0.0000
     22 C          -0.0913    0.2427    0.6270 C.ar    1  UNL1        0.0000
     23 C           0.8321    0.8717    1.4695 C.ar    1  UNL1        0.0000
     24 C           0.7107    1.6287    2.5875 C.ar    1  UNL1        0.0000
     25 O           1.9838    1.9525    2.9922 O.2     1  UNL1        0.0000
     26 C           2.8645    1.3780    2.1026 C.ar    1  UNL1        0.0000
     27 C           2.1827    0.6968    1.1188 C.ar    1  UNL1        0.0000
     28 H           4.7041    1.5894   -2.3891 H       1  UNL1        0.0000
     29 H           5.3079    2.4023   -0.0732 H       1  UNL1        0.0000
     30 H           7.5685    0.4027   -1.3278 H       1  UNL1        0.0000
     31 H           6.9589   -1.9327   -0.3595 H       1  UNL1        0.0000
     32 H           4.5023   -2.1859    0.3297 H       1  UNL1        0.0000
     33 H           1.9948   -1.2489   -1.6383 H       1  UNL1        0.0000
     34 H          -0.9161   -1.5614   -1.8758 H       1  UNL1        0.0000
     35 H          -5.1677    1.0722    2.2000 H       1  UNL1        0.0000
     36 H          -7.0691    0.0301    0.8591 H       1  UNL1        0.0000
     37 H          -7.4608   -1.6753   -1.5432 H       1  UNL1        0.0000
     38 H          -3.5625   -2.3055   -2.7407 H       1  UNL1        0.0000
     39 H          -0.0988    2.0048    3.1960 H       1  UNL1        0.0000
     40 H           3.9084    1.5512    2.3231 H       1  UNL1        0.0000
@<TRIPOS>BOND
     1     1     2    1
     2     2     3    2
     3     3     4    1
     4     4     5    2
     5     5     6    1
     6     6     7   ar
     7     7     8   ar
     8     8     9   ar
     9     9    10   ar
    10    10    11   ar
    11    11    12   ar
    12    12    13   ar
    13    13    14   ar
    14    14    15   ar
    15    15    16   ar
    16    16    17   ar
    17    17    18   ar
    18    18    19   ar
    19    19    20   ar
    20    20    21   ar
    21    11    22   ar
    22    22    23   ar
    23    23    24   ar
    24    24    25   ar
    25    25    26   ar
    26    26    27   ar
    27     5     1    1
    28    27     6   ar
    29    22     8   ar
    30    27    23   ar
    31    21    10   ar
    32    21    13   ar
    33    20    16   ar
    34     1    28    1
    35     1    29    1
    36     2    30    1
    37     3    31    1
    38     4    32    1
    39     7    33    1
    40     9    34    1
    41    14    35    1
    42    15    36    1
    43    17    37    1
    44    19    38    1
    45    24    39    1
    46    26    40    1
