@<TRIPOS>MOLECULE
*****
 37 38 0 0 0
SMALL
GASTEIGER

@<TRIPOS>ATOM
      1 C          -4.7865   -2.3878   -1.0992 C.3     1  UNL1       -0.0220
      2 C          -3.7696   -1.4448   -0.5225 C.ar    1  UNL1        0.0457
      3 N          -2.4837   -1.8362   -0.6477 N.ar    1  UNL1       -0.2269
      4 C          -1.5422   -1.0211   -0.1577 C.ar    1  UNL1        0.1891
      5 S           0.1383   -1.5548   -0.3424 S.3     1  UNL1       -0.0767
      6 C           0.9348   -0.4561    0.8684 C.3     1  UNL1        0.0776
      7 C           2.4185   -0.7558    0.9936 C.2     1  UNL1        0.2237
      8 O           2.9744   -0.8278    2.0883 O.2     1  UNL1       -0.2749
      9 N           3.1012   -0.8576   -0.1962 N.am    1  UNL1       -0.3075
     10 C           4.5360   -0.9965   -0.2591 C.3     1  UNL1        0.0698
     11 C           5.1228    0.3421   -0.5066 C.ar    1  UNL1        0.1218
     12 C           5.5546    1.3535    0.3270 C.ar    1  UNL1       -0.0192
     13 C           6.0082    2.3974   -0.5138 C.ar    1  UNL1       -0.0236
     14 C           5.8216    1.9593   -1.8039 C.ar    1  UNL1        0.0921
     15 O           5.2816    0.7133   -1.8108 O.2     1  UNL1       -0.4662
     16 N          -1.7866    0.1589    0.4268 N.ar    1  UNL1       -0.2269
     17 C          -3.0786    0.5358    0.5435 C.ar    1  UNL1        0.0457
     18 C          -3.3002    1.8711    1.1946 C.3     1  UNL1       -0.0220
     19 C          -4.1353   -0.2541    0.0994 C.ar    1  UNL1       -0.0083
     20 C          -5.5652    0.1822    0.2071 C.3     1  UNL1       -0.0363
     21 H          -5.4226   -1.8701   -1.8237 H       1  UNL1        0.0293
     22 H          -5.4061   -2.8123   -0.3036 H       1  UNL1        0.0293
     23 H          -4.2964   -3.2174   -1.6204 H       1  UNL1        0.0293
     24 H           0.8285    0.5921    0.5709 H       1  UNL1        0.0475
     25 H           0.4740   -0.6035    1.8508 H       1  UNL1        0.0475
     26 H           2.6009   -0.7035   -1.0628 H       1  UNL1        0.1492
     27 H           4.9241   -1.4274    0.6693 H       1  UNL1        0.0542
     28 H           4.7667   -1.6813   -1.0813 H       1  UNL1        0.0542
     29 H           5.5343    1.3323    1.4083 H       1  UNL1        0.0652
     30 H           6.4178    3.3526   -0.2173 H       1  UNL1        0.0649
     31 H           6.0100    2.3919   -2.7765 H       1  UNL1        0.1029
     32 H          -3.8959    2.5211    0.5459 H       1  UNL1        0.0293
     33 H          -2.3459    2.3748    1.3828 H       1  UNL1        0.0293
     34 H          -3.8081    1.7458    2.1557 H       1  UNL1        0.0293
     35 H          -5.8600    0.7213   -0.6985 H       1  UNL1        0.0279
     36 H          -6.2368   -0.6708    0.3455 H       1  UNL1        0.0279
     37 H          -5.7286    0.8334    1.0712 H       1  UNL1        0.0279
@<TRIPOS>BOND
     1     1     2    1
     2     2     3   ar
     3     3     4   ar
     4     4     5    1
     5     5     6    1
     6     6     7    1
     7     7     8    2
     8     7     9   am
     9     9    10    1
    10    10    11    1
    11    11    12   ar
    12    12    13   ar
    13    13    14   ar
    14    14    15   ar
    15     4    16   ar
    16    16    17   ar
    17    17    18    1
    18    17    19   ar
    19    19    20    1
    20    19     2   ar
    21    15    11   ar
    22     1    21    1
    23     1    22    1
    24     1    23    1
    25     6    24    1
    26     6    25    1
    27     9    26    1
    28    10    27    1
    29    10    28    1
    30    12    29    1
    31    13    30    1
    32    14    31    1
    33    18    32    1
    34    18    33    1
    35    18    34    1
    36    20    35    1
    37    20    36    1
    38    20    37    1
