@<TRIPOS>MOLECULE
*****
 33 36 0 0 0
SMALL
GASTEIGER

@<TRIPOS>ATOM
      1 C          -2.0523    2.3026   -2.0598 C.3     1  UNL1       -0.0059
      2 C          -0.7378    1.9172   -1.4772 C.ar    1  UNL1        0.1124
      3 N           0.3374    2.6785   -1.5522 N.ar    1  UNL1       -0.2250
      4 C           1.2996    2.0383   -0.8167 C.ar    1  UNL1        0.1743
      5 C           2.6543    2.5136   -0.5558 C.ar    1  UNL1        0.3651
      6 O           3.1046    3.5824   -0.9569 O.2     1  UNL1       -0.2427
      7 O           3.4416    1.6510    0.2412 O.2     1  UNL1       -0.4206
      8 C           3.0094    0.3498    0.6262 C.ar    1  UNL1        0.1412
      9 C           3.9596   -0.4456    1.2650 C.ar    1  UNL1       -0.0186
     10 C           3.6312   -1.7580    1.5898 C.ar    1  UNL1       -0.0582
     11 C           2.3738   -2.2629    1.2544 C.ar    1  UNL1       -0.0609
     12 C           1.4266   -1.4526    0.6143 C.ar    1  UNL1       -0.0490
     13 C           1.7172   -0.1185    0.3276 C.ar    1  UNL1        0.0435
     14 C           0.8331    0.8294   -0.3370 C.ar    1  UNL1        0.0912
     15 N          -0.5120    0.7946   -0.6768 N.ar    1  UNL1       -0.2953
     16 C          -1.5046   -0.1052   -0.2102 C.ar    1  UNL1        0.0483
     17 C          -2.4214   -0.6733   -1.1014 C.ar    1  UNL1       -0.0378
     18 C          -3.4056   -1.5400   -0.6227 C.ar    1  UNL1       -0.0598
     19 C          -3.4809   -1.8324    0.7391 C.ar    1  UNL1       -0.0616
     20 C          -2.5720   -1.2608    1.6287 C.ar    1  UNL1       -0.0598
     21 C          -1.5829   -0.3959    1.1587 C.ar    1  UNL1       -0.0378
     22 H          -2.8625    2.2046   -1.3315 H       1  UNL1        0.0308
     23 H          -2.2783    1.6976   -2.9422 H       1  UNL1        0.0308
     24 H          -2.0279    3.3502   -2.3787 H       1  UNL1        0.0308
     25 H           4.9473   -0.0529    1.4884 H       1  UNL1        0.0654
     26 H           4.3609   -2.3963    2.0820 H       1  UNL1        0.0619
     27 H           2.1305   -3.2989    1.4809 H       1  UNL1        0.0618
     28 H           0.4808   -1.9054    0.3344 H       1  UNL1        0.0625
     29 H          -2.3655   -0.4890   -2.1709 H       1  UNL1        0.0638
     30 H          -4.1134   -1.9929   -1.3132 H       1  UNL1        0.0618
     31 H          -4.2509   -2.5060    1.1079 H       1  UNL1        0.0618
     32 H          -2.6388   -1.4836    2.6910 H       1  UNL1        0.0618
     33 H          -0.9013    0.0604    1.8737 H       1  UNL1        0.0638
@<TRIPOS>BOND
     1     1     2    1
     2     2     3   ar
     3     3     4   ar
     4     4     5   ar
     5     5     6    2
     6     5     7   ar
     7     7     8   ar
     8     8     9   ar
     9     9    10   ar
    10    10    11   ar
    11    11    12   ar
    12    12    13   ar
    13    13    14   ar
    14    14    15   ar
    15    15    16    1
    16    16    17   ar
    17    17    18   ar
    18    18    19   ar
    19    19    20   ar
    20    20    21   ar
    21    15     2   ar
    22    21    16   ar
    23    14     4   ar
    24    13     8   ar
    25     1    22    1
    26     1    23    1
    27     1    24    1
    28     9    25    1
    29    10    26    1
    30    11    27    1
    31    12    28    1
    32    17    29    1
    33    18    30    1
    34    19    31    1
    35    20    32    1
    36    21    33    1
