@<TRIPOS>MOLECULE
*****
 37 40 0 0 0
SMALL
GASTEIGER

@<TRIPOS>ATOM
      1 C          -1.5102   -3.4466   -1.3763 C.3     1  UNL1       -0.0047
      2 C          -2.0018   -2.0716   -1.1042 C.ar    1  UNL1        0.1289
      3 N          -2.7362   -1.3727   -1.9510 N.ar    1  UNL1       -0.2309
      4 C          -3.0062   -0.1803   -1.3287 C.ar    1  UNL1        0.0911
      5 C          -3.7447    0.9144   -1.8016 C.ar    1  UNL1       -0.0342
      6 C          -3.8785    2.0430   -0.9861 C.ar    1  UNL1       -0.0596
      7 C          -3.2890    2.0811    0.2771 C.ar    1  UNL1       -0.0596
      8 C          -2.5485    0.9989    0.7665 C.ar    1  UNL1       -0.0343
      9 C          -2.4249   -0.1253   -0.0643 C.ar    1  UNL1        0.0923
     10 N          -1.7912   -1.3441    0.0461 N.ar    1  UNL1       -0.1960
     11 S          -0.7305   -1.7389    1.3034 S.O2    1  UNL1        0.0857
     12 O          -0.2804   -3.1000    1.0958 O.2     1  UNL1       -0.1476
     13 O          -1.4131   -1.3419    2.5207 O.2     1  UNL1       -0.1476
     14 C           0.6634   -0.6718    1.0567 C.ar    1  UNL1        0.1116
     15 C           1.0901    0.1514    2.0992 C.ar    1  UNL1       -0.0343
     16 C           2.1793    1.0006    1.9007 C.ar    1  UNL1       -0.0522
     17 C           2.8514    1.0311    0.6677 C.ar    1  UNL1       -0.0178
     18 C           3.9467    1.8828    0.4559 C.ar    1  UNL1       -0.0540
     19 C           4.6084    1.9017   -0.7729 C.ar    1  UNL1       -0.0612
     20 C           4.1845    1.0696   -1.8046 C.ar    1  UNL1       -0.0612
     21 C           3.0975    0.2158   -1.6113 C.ar    1  UNL1       -0.0540
     22 C           2.4199    0.1850   -0.3821 C.ar    1  UNL1       -0.0160
     23 C           1.3253   -0.6682   -0.1755 C.ar    1  UNL1       -0.0272
     24 H          -1.8613   -4.1498   -0.6156 H       1  UNL1        0.0308
     25 H          -1.8937   -3.7965   -2.3409 H       1  UNL1        0.0308
     26 H          -0.4186   -3.4730   -1.4341 H       1  UNL1        0.0308
     27 H          -4.2001    0.8778   -2.7855 H       1  UNL1        0.0639
     28 H          -4.4502    2.8968   -1.3425 H       1  UNL1        0.0618
     29 H          -3.4103    2.9678    0.8971 H       1  UNL1        0.0618
     30 H          -2.1079    1.0429    1.7581 H       1  UNL1        0.0639
     31 H           0.5880    0.1427    3.0646 H       1  UNL1        0.0637
     32 H           2.5040    1.6411    2.7188 H       1  UNL1        0.0624
     33 H           4.2954    2.5405    1.2493 H       1  UNL1        0.0624
     34 H           5.4554    2.5664   -0.9232 H       1  UNL1        0.0618
     35 H           4.7000    1.0842   -2.7617 H       1  UNL1        0.0618
     36 H           2.7838   -0.4253   -2.4326 H       1  UNL1        0.0624
     37 H           1.0041   -1.3296   -0.9769 H       1  UNL1        0.0643
@<TRIPOS>BOND
     1     1     2    1
     2     2     3   ar
     3     3     4   ar
     4     4     5   ar
     5     5     6   ar
     6     6     7   ar
     7     7     8   ar
     8     8     9   ar
     9     9    10   ar
    10    10    11    1
    11    11    12    2
    12    11    13    2
    13    11    14    1
    14    14    15   ar
    15    15    16   ar
    16    16    17   ar
    17    17    18   ar
    18    18    19   ar
    19    19    20   ar
    20    20    21   ar
    21    21    22   ar
    22    22    23   ar
    23    10     2   ar
    24    23    14   ar
    25     9     4   ar
    26    22    17   ar
    27     1    24    1
    28     1    25    1
    29     1    26    1
    30     5    27    1
    31     6    28    1
    32     7    29    1
    33     8    30    1
    34    15    31    1
    35    16    32    1
    36    18    33    1
    37    19    34    1
    38    20    35    1
    39    21    36    1
    40    23    37    1
