@<TRIPOS>MOLECULE
*****
 43 45 0 0 0
SMALL
GASTEIGER

@<TRIPOS>ATOM
      1 C          -3.1394    2.9914   -1.3160 C.3     1  UNL1       -0.0198
      2 C          -3.3405    1.7159   -0.5536 C.ar    1  UNL1        0.0707
      3 N          -4.6221    1.2619   -0.4879 N.ar    1  UNL1       -0.2477
      4 C          -4.8369    0.1202    0.1889 C.ar    1  UNL1        0.0895
      5 C          -6.1264   -0.3878    0.2906 C.ar    1  UNL1       -0.0342
      6 C          -6.3885   -1.5699    0.9843 C.ar    1  UNL1       -0.0596
      7 C          -5.3423   -2.2559    1.5867 C.ar    1  UNL1       -0.0596
      8 C          -4.0436   -1.7536    1.4896 C.ar    1  UNL1       -0.0342
      9 C          -3.7713   -0.5772    0.8013 C.ar    1  UNL1        0.0905
     10 N          -2.5041   -0.1277    0.7315 N.ar    1  UNL1       -0.2371
     11 C          -2.2877    1.0273    0.0568 C.ar    1  UNL1        0.1191
     12 S          -0.5976    1.5930   -0.0398 S.3     1  UNL1       -0.0948
     13 C           0.1535    0.5966    1.2888 C.3     1  UNL1        0.0764
     14 C           1.6211    0.9687    1.4384 C.2     1  UNL1        0.2258
     15 O           1.9625    1.7347    2.3456 O.2     1  UNL1       -0.2747
     16 N           2.5484    0.4368    0.5359 N.am    1  UNL1       -0.3008
     17 C           3.9611    0.6983    0.8109 C.3     1  UNL1        0.0149
     18 C           4.8133    0.7138   -0.4551 C.3     1  UNL1       -0.0345
     19 C           4.6034   -0.5280   -1.3279 C.3     1  UNL1       -0.0410
     20 C           5.2256   -1.7798   -0.7066 C.3     1  UNL1       -0.0623
     21 C           3.1067   -0.7058   -1.6033 C.3     1  UNL1       -0.0345
     22 C           2.2616   -0.7078   -0.3312 C.3     1  UNL1        0.0149
     23 H          -4.0938    3.3642   -1.7033 H       1  UNL1        0.0293
     24 H          -2.7213    3.7671   -0.6670 H       1  UNL1        0.0293
     25 H          -2.4769    2.8291   -2.1718 H       1  UNL1        0.0293
     26 H          -6.9435    0.1523   -0.1818 H       1  UNL1        0.0639
     27 H          -7.4056   -1.9480    1.0515 H       1  UNL1        0.0618
     28 H          -5.5314   -3.1777    2.1313 H       1  UNL1        0.0618
     29 H          -3.2246   -2.2903    1.9622 H       1  UNL1        0.0639
     30 H          -0.3463    0.8260    2.2370 H       1  UNL1        0.0475
     31 H           0.0464   -0.4781    1.1207 H       1  UNL1        0.0475
     32 H           4.0778    1.6599    1.3230 H       1  UNL1        0.0464
     33 H           4.3069   -0.0758    1.5058 H       1  UNL1        0.0464
     34 H           5.8712    0.8212   -0.1885 H       1  UNL1        0.0283
     35 H           4.5461    1.6013   -1.0440 H       1  UNL1        0.0283
     36 H           5.1092   -0.3596   -2.2875 H       1  UNL1        0.0299
     37 H           4.7814   -2.0333    0.2603 H       1  UNL1        0.0232
     38 H           6.3008   -1.6380   -0.5533 H       1  UNL1        0.0232
     39 H           5.0957   -2.6418   -1.3696 H       1  UNL1        0.0232
     40 H           2.7713    0.1227   -2.2413 H       1  UNL1        0.0283
     41 H           2.9275   -1.6281   -2.1681 H       1  UNL1        0.0283
     42 H           1.2103   -0.7243   -0.6245 H       1  UNL1        0.0464
     43 H           2.4420   -1.6140    0.2583 H       1  UNL1        0.0464
@<TRIPOS>BOND
     1     1     2    1
     2     2     3   ar
     3     3     4   ar
     4     4     5   ar
     5     5     6   ar
     6     6     7   ar
     7     7     8   ar
     8     8     9   ar
     9     9    10   ar
    10    10    11   ar
    11    11    12    1
    12    12    13    1
    13    13    14    1
    14    14    15    2
    15    14    16   am
    16    16    17    1
    17    17    18    1
    18    18    19    1
    19    19    20    1
    20    19    21    1
    21    21    22    1
    22    11     2   ar
    23    22    16    1
    24     9     4   ar
    25     1    23    1
    26     1    24    1
    27     1    25    1
    28     5    26    1
    29     6    27    1
    30     7    28    1
    31     8    29    1
    32    13    30    1
    33    13    31    1
    34    17    32    1
    35    17    33    1
    36    18    34    1
    37    18    35    1
    38    19    36    1
    39    20    37    1
    40    20    38    1
    41    20    39    1
    42    21    40    1
    43    21    41    1
    44    22    42    1
    45    22    43    1
