@<TRIPOS>MOLECULE
*****
 38 41 0 0 0
SMALL
GASTEIGER

@<TRIPOS>ATOM
      1 C           2.2703    2.6771   -0.8977 C.3     1  UNL1       -0.0201
      2 C           2.9166    1.4356   -0.4048 C.ar    1  UNL1        0.0694
      3 N           4.2787    1.3047   -0.5223 N.ar    1  UNL1       -0.2322
      4 C           4.5756    0.1653    0.0597 C.ar    1  UNL1        0.1384
      5 C           5.8303   -0.4792    0.2549 C.ar    1  UNL1       -0.0188
      6 C           5.8842   -1.6636    0.8931 C.ar    1  UNL1       -0.0569
      7 C           4.6819   -2.3085    1.3925 C.ar    1  UNL1       -0.0450
      8 C           3.4948   -1.7058    1.2102 C.ar    1  UNL1        0.0119
      9 N           3.4388   -0.4737    0.5502 N.ar    1  UNL1       -0.2953
     10 C           2.3558    0.3247    0.2175 C.ar    1  UNL1        0.1315
     11 C           0.9779    0.0150    0.5302 C.2     1  UNL1        0.2669
     12 O           0.6648   -0.5608    1.5651 O.2     1  UNL1       -0.2682
     13 N           0.0932    0.3895   -0.4656 N.am    1  UNL1       -0.2801
     14 C          -1.3132    0.2803   -0.4643 C.ar    1  UNL1        0.0374
     15 C          -1.9779    0.6497   -1.6435 C.ar    1  UNL1       -0.0368
     16 C          -3.3716    0.5871   -1.7296 C.ar    1  UNL1       -0.0145
     17 C          -4.1129    0.1602   -0.6337 C.ar    1  UNL1        0.1622
     18 C          -3.4592   -0.2310    0.5374 C.ar    1  UNL1        0.1638
     19 C          -2.0665   -0.1563    0.6280 C.ar    1  UNL1        0.0050
     20 O          -4.1244   -0.6905    1.6470 O.3     1  UNL1       -0.4849
     21 C          -5.4737   -1.0529    1.3346 C.3     1  UNL1        0.1237
     22 C          -6.1336    0.0226    0.4881 C.3     1  UNL1        0.1237
     23 O          -5.4759    0.1443   -0.7787 O.3     1  UNL1       -0.4849
     24 H           1.4515    2.9836   -0.2397 H       1  UNL1        0.0293
     25 H           1.8747    2.5263   -1.9064 H       1  UNL1        0.0293
     26 H           2.9920    3.4995   -0.9355 H       1  UNL1        0.0293
     27 H           6.7242    0.0073   -0.1179 H       1  UNL1        0.0654
     28 H           6.8339   -2.1656    1.0514 H       1  UNL1        0.0619
     29 H           4.7671   -3.2619    1.9031 H       1  UNL1        0.0632
     30 H           2.5654   -2.1376    1.5608 H       1  UNL1        0.0813
     31 H           0.5068    0.7235   -1.3253 H       1  UNL1        0.1552
     32 H          -1.4231    0.9932   -2.5131 H       1  UNL1        0.0637
     33 H          -3.8766    0.8811   -2.6455 H       1  UNL1        0.0656
     34 H          -1.6043   -0.4508    1.5643 H       1  UNL1        0.0674
     35 H          -5.4649   -2.0214    0.8192 H       1  UNL1        0.0731
     36 H          -6.0120   -1.1742    2.2798 H       1  UNL1        0.0731
     37 H          -6.1094    0.9988    0.9883 H       1  UNL1        0.0731
     38 H          -7.1794   -0.2361    0.2950 H       1  UNL1        0.0731
@<TRIPOS>BOND
     1     1     2    1
     2     2     3   ar
     3     3     4   ar
     4     4     5   ar
     5     5     6   ar
     6     6     7   ar
     7     7     8   ar
     8     8     9   ar
     9     9    10   ar
    10    10    11    1
    11    11    12    2
    12    11    13   am
    13    13    14    1
    14    14    15   ar
    15    15    16   ar
    16    16    17   ar
    17    17    18   ar
    18    18    19   ar
    19    18    20    1
    20    20    21    1
    21    21    22    1
    22    22    23    1
    23    10     2   ar
    24    19    14   ar
    25     9     4   ar
    26    23    17    1
    27     1    24    1
    28     1    25    1
    29     1    26    1
    30     5    27    1
    31     6    28    1
    32     7    29    1
    33     8    30    1
    34    13    31    1
    35    15    32    1
    36    16    33    1
    37    19    34    1
    38    21    35    1
    39    21    36    1
    40    22    37    1
    41    22    38    1
