@<TRIPOS>MOLECULE
*****
 31 33 0 0 0
SMALL
GASTEIGER

@<TRIPOS>ATOM
      1 C           5.1838   -1.5361   -0.7568 C.3     1  UNL1       -0.0185
      2 C           4.6604   -0.2447   -0.2621 C.ar    1  UNL1        0.0888
      3 N           5.5093    0.7863    0.0787 N.ar    1  UNL1       -0.2207
      4 C           4.6990    1.7437    0.4634 C.ar    1  UNL1        0.1830
      5 O           3.3739    1.4392    0.4085 O.2     1  UNL1       -0.4376
      6 C           3.3492    0.1454   -0.0636 C.ar    1  UNL1        0.2123
      7 C           2.0873   -0.5357   -0.2588 C.2     1  UNL1        0.2854
      8 O           2.0276   -1.6868   -0.6770 O.2     1  UNL1       -0.2664
      9 N           0.9999    0.2532    0.0760 N.am    1  UNL1       -0.2788
     10 C          -0.3689   -0.0716    0.0162 C.ar    1  UNL1        0.0375
     11 C          -0.8628   -1.3051   -0.4170 C.ar    1  UNL1       -0.0368
     12 C          -2.2407   -1.5509   -0.4396 C.ar    1  UNL1       -0.0145
     13 C          -3.1323   -0.5663   -0.0269 C.ar    1  UNL1        0.1622
     14 C          -2.6495    0.6782    0.3812 C.ar    1  UNL1        0.1638
     15 C          -1.2754    0.9192    0.4168 C.ar    1  UNL1        0.0050
     16 O          -3.4657    1.7106    0.7698 O.3     1  UNL1       -0.4849
     17 C          -4.8232    1.4780    0.3746 C.3     1  UNL1        0.1237
     18 C          -5.2409    0.0531    0.6991 C.3     1  UNL1        0.1237
     19 O          -4.4649   -0.8850   -0.0549 O.3     1  UNL1       -0.4849
     20 H           6.2774   -1.5241   -0.7990 H       1  UNL1        0.0294
     21 H           4.8083   -1.7433   -1.7636 H       1  UNL1        0.0294
     22 H           4.8795   -2.3533   -0.0954 H       1  UNL1        0.0294
     23 H           4.9562    2.7334    0.8143 H       1  UNL1        0.1255
     24 H           1.2334    1.1831    0.4071 H       1  UNL1        0.1552
     25 H          -0.2045   -2.1047   -0.7420 H       1  UNL1        0.0637
     26 H          -2.6120   -2.5172   -0.7704 H       1  UNL1        0.0656
     27 H          -0.9281    1.8927    0.7514 H       1  UNL1        0.0674
     28 H          -4.9146    1.6889   -0.6982 H       1  UNL1        0.0731
     29 H          -5.4528    2.1900    0.9173 H       1  UNL1        0.0731
     30 H          -5.1161   -0.1689    1.7663 H       1  UNL1        0.0731
     31 H          -6.2928   -0.1016    0.4391 H       1  UNL1        0.0731
@<TRIPOS>BOND
     1     1     2    1
     2     2     3   ar
     3     3     4   ar
     4     4     5   ar
     5     5     6   ar
     6     6     7    1
     7     7     8    2
     8     7     9   am
     9     9    10    1
    10    10    11   ar
    11    11    12   ar
    12    12    13   ar
    13    13    14   ar
    14    14    15   ar
    15    14    16    1
    16    16    17    1
    17    17    18    1
    18    18    19    1
    19     6     2   ar
    20    15    10   ar
    21    19    13    1
    22     1    20    1
    23     1    21    1
    24     1    22    1
    25     4    23    1
    26     9    24    1
    27    11    25    1
    28    12    26    1
    29    15    27    1
    30    17    28    1
    31    17    29    1
    32    18    30    1
    33    18    31    1
