@<TRIPOS>MOLECULE
*****
 31 32 0 0 0
SMALL
GASTEIGER

@<TRIPOS>ATOM
      1 C           2.3965   -2.6498   -0.2438 C.3     1  UNL1       -0.0188
      2 C           2.7060   -1.2018   -0.1477 C.ar    1  UNL1        0.0811
      3 N           3.9805   -0.7886   -0.1432 N.ar    1  UNL1       -0.1748
      4 N           3.8842    0.5487   -0.0411 N.ar    1  UNL1       -0.2724
      5 C           5.0851    1.3468   -0.0076 C.3     1  UNL1        0.0303
      6 C           2.6004    0.9995    0.0212 C.ar    1  UNL1        0.0467
      7 C           1.7959   -0.1114   -0.0468 C.ar    1  UNL1        0.0745
      8 N           0.4118   -0.1846   -0.0235 N.am    1  UNL1       -0.2773
      9 C          -0.4510    0.8921    0.0875 C.2     1  UNL1        0.2752
     10 O          -0.0720    2.0598    0.1666 O.2     1  UNL1       -0.2679
     11 C          -1.9050    0.5731    0.0920 C.ar    1  UNL1        0.2239
     12 N          -2.7797    1.5393   -0.2753 N.ar    1  UNL1       -0.1596
     13 N          -3.9966    1.0078   -0.1151 N.ar    1  UNL1       -0.2670
     14 C          -5.1621    1.8084   -0.4082 C.3     1  UNL1        0.0305
     15 C          -3.9716   -0.2735    0.3285 C.ar    1  UNL1        0.1031
     16 C          -2.6340   -0.5946    0.4691 C.ar    1  UNL1        0.3225
     17 N          -2.1727   -1.8635    0.9339 N.pl3   1  UNL1        0.0836
     18 O          -2.9071   -2.4817    1.7125 O.2     1  UNL1        0.0416
     19 O          -1.0872   -2.2592    0.4929 O.co2   1  UNL1       -0.5759
     20 H           1.7112   -2.8403   -1.0759 H       1  UNL1        0.0294
     21 H           3.3001   -3.2456   -0.4095 H       1  UNL1        0.0294
     22 H           1.9251   -2.9990    0.6803 H       1  UNL1        0.0294
     23 H           5.6781    1.0411    0.8579 H       1  UNL1        0.0473
     24 H           4.8187    2.4032    0.0772 H       1  UNL1        0.0473
     25 H           5.6390    1.1751   -0.9339 H       1  UNL1        0.0473
     26 H           2.3767    2.0539    0.1048 H       1  UNL1        0.0845
     27 H           0.0353   -1.1240   -0.0983 H       1  UNL1        0.1553
     28 H          -6.0633    1.2188   -0.2228 H       1  UNL1        0.0473
     29 H          -5.1493    2.6863    0.2425 H       1  UNL1        0.0473
     30 H          -5.1199    2.1061   -1.4589 H       1  UNL1        0.0473
     31 H          -4.8733   -0.8428    0.5132 H       1  UNL1        0.0896
@<TRIPOS>UNITY_ATOM_ATTR
17 1
charge 1
19 1
charge -1
@<TRIPOS>BOND
     1     1     2    1
     2     2     3   ar
     3     3     4   ar
     4     4     5    1
     5     4     6   ar
     6     6     7   ar
     7     7     8    1
     8     8     9   am
     9     9    10    2
    10     9    11    1
    11    11    12   ar
    12    12    13   ar
    13    13    14    1
    14    13    15   ar
    15    15    16   ar
    16    16    17    1
    17    17    18    2
    18    17    19    1
    19     7     2   ar
    20    16    11   ar
    21     1    20    1
    22     1    21    1
    23     1    22    1
    24     5    23    1
    25     5    24    1
    26     5    25    1
    27     6    26    1
    28     8    27    1
    29    14    28    1
    30    14    29    1
    31    14    30    1
    32    15    31    1
