@<TRIPOS>MOLECULE
*****
 32 33 0 0 0
SMALL
GASTEIGER

@<TRIPOS>ATOM
      1 C           0.6694   -2.8572    0.2094 C.3     1  UNL1       -0.0198
      2 C           0.0888   -1.5173   -0.0700 C.ar    1  UNL1        0.0740
      3 N          -1.1906   -1.2911    0.2368 N.ar    1  UNL1       -0.1695
      4 N          -1.4385    0.0019   -0.1369 N.ar    1  UNL1       -0.2204
      5 C          -2.7167    0.5613    0.1878 C.ar    1  UNL1        0.0670
      6 C          -3.7634   -0.3133    0.5377 C.ar    1  UNL1       -0.0362
      7 C          -5.0302    0.1774    0.8652 C.ar    1  UNL1       -0.0598
      8 C          -5.2669    1.5478    0.8618 C.ar    1  UNL1       -0.0616
      9 C          -4.2349    2.4259    0.5418 C.ar    1  UNL1       -0.0598
     10 C          -2.9640    1.9386    0.2121 C.ar    1  UNL1       -0.0362
     11 C          -0.3232    0.5248   -0.7705 C.ar    1  UNL1        0.1452
     12 CL         -0.3178    2.0332   -1.5763 Cl      1  UNL1       -0.0611
     13 C           0.6998   -0.3971   -0.6879 C.ar    1  UNL1        0.0961
     14 C           2.0502   -0.2401   -1.1954 C.2     1  UNL1        0.2492
     15 O           2.3182    0.4135   -2.1968 O.2     1  UNL1       -0.2700
     16 N           3.0217   -0.8617   -0.4372 N.am    1  UNL1       -0.3007
     17 C           4.4266   -0.5923   -0.7054 C.3     1  UNL1        0.1091
     18 C           4.8773    0.6330    0.0714 C.2     1  UNL1        0.3221
     19 O           4.3232    1.1141    1.0486 O.2     1  UNL1       -0.2492
     20 O           6.0388    1.1433   -0.3821 O.3     1  UNL1       -0.4795
     21 H          -0.1140   -3.6075    0.3616 H       1  UNL1        0.0293
     22 H           1.2850   -2.8240    1.1137 H       1  UNL1        0.0293
     23 H           1.2908   -3.1952   -0.6259 H       1  UNL1        0.0293
     24 H          -3.6125   -1.3918    0.5467 H       1  UNL1        0.0639
     25 H          -5.8285   -0.5139    1.1228 H       1  UNL1        0.0618
     26 H          -6.2507    1.9321    1.1181 H       1  UNL1        0.0618
     27 H          -4.4134    3.4986    0.5594 H       1  UNL1        0.0618
     28 H          -2.1938    2.6778    0.0296 H       1  UNL1        0.0639
     29 H           2.7833   -1.0568    0.5272 H       1  UNL1        0.1496
     30 H           5.0030   -1.4564   -0.3646 H       1  UNL1        0.0577
     31 H           4.5817   -0.4313   -1.7760 H       1  UNL1        0.0577
     32 H           6.2013    1.9238    0.1887 H       1  UNL1        0.2951
@<TRIPOS>BOND
     1     1     2    1
     2     2     3   ar
     3     3     4   ar
     4     4     5    1
     5     5     6   ar
     6     6     7   ar
     7     7     8   ar
     8     8     9   ar
     9     9    10   ar
    10     4    11   ar
    11    11    12    1
    12    11    13   ar
    13    13    14    1
    14    14    15    2
    15    14    16   am
    16    16    17    1
    17    17    18    1
    18    18    19    2
    19    18    20    1
    20    13     2   ar
    21    10     5   ar
    22     1    21    1
    23     1    22    1
    24     1    23    1
    25     6    24    1
    26     7    25    1
    27     8    26    1
    28     9    27    1
    29    10    28    1
    30    16    29    1
    31    17    30    1
    32    17    31    1
    33    20    32    1
