@<TRIPOS>MOLECULE
*****
 30 32 0 0 0
SMALL
GASTEIGER

@<TRIPOS>ATOM
      1 C           6.0631    0.3825    0.8809 C.3     1  UNL1       -0.0140
      2 C           4.7291   -0.1119    0.4601 C.ar    1  UNL1        0.1006
      3 N           4.2659   -1.3231    0.6874 N.ar    1  UNL1       -0.1450
      4 N           2.9907   -1.4951    0.1784 N.ar    1  UNL1       -0.1256
      5 C           2.5513   -0.4090   -0.4065 C.ar    1  UNL1        0.1878
      6 N           1.3626   -0.1544   -1.0286 N.am    1  UNL1       -0.2618
      7 C           0.3527   -1.0911   -1.0957 C.2     1  UNL1        0.2386
      8 O           0.3760   -2.2340   -0.6497 O.2     1  UNL1       -0.2735
      9 C          -0.8814   -0.5730   -1.8314 C.3     1  UNL1        0.1037
     10 N          -1.5525    0.4497   -1.0558 N.ar    1  UNL1       -0.2930
     11 C          -1.1439    1.7708   -1.1135 C.ar    1  UNL1        0.2920
     12 O          -0.1822    2.1902   -1.7441 O.2     1  UNL1       -0.2594
     13 S          -2.1624    2.7713   -0.0768 S.2     1  UNL1       -0.0266
     14 C          -3.0494    1.3474    0.4923 C.ar    1  UNL1        0.0407
     15 C          -4.0649    1.3063    1.4339 C.ar    1  UNL1       -0.0459
     16 C          -4.6175    0.0663    1.7578 C.ar    1  UNL1       -0.0606
     17 C          -4.1468   -1.1037    1.1441 C.ar    1  UNL1       -0.0597
     18 C          -3.1217   -1.0502    0.1936 C.ar    1  UNL1       -0.0370
     19 C          -2.5829    0.1869   -0.1310 C.ar    1  UNL1        0.0598
     20 S           3.6387    0.9074   -0.3946 S.2     1  UNL1       -0.0356
     21 H           5.9663    1.2361    1.5592 H       1  UNL1        0.0298
     22 H           6.6151   -0.4035    1.4060 H       1  UNL1        0.0298
     23 H           6.6567    0.6887    0.0138 H       1  UNL1        0.0298
     24 H           1.2302    0.7796   -1.4057 H       1  UNL1        0.1568
     25 H          -1.5581   -1.4009   -2.0627 H       1  UNL1        0.0589
     26 H          -0.5577   -0.1488   -2.7898 H       1  UNL1        0.0589
     27 H          -4.4214    2.2116    1.9153 H       1  UNL1        0.0629
     28 H          -5.4131    0.0043    2.4973 H       1  UNL1        0.0618
     29 H          -4.5789   -2.0647    1.4167 H       1  UNL1        0.0618
     30 H          -2.7639   -1.9732   -0.2510 H       1  UNL1        0.0638
@<TRIPOS>BOND
     1     1     2    1
     2     2     3   ar
     3     3     4   ar
     4     4     5   ar
     5     5     6    1
     6     6     7   am
     7     7     8    2
     8     7     9    1
     9     9    10    1
    10    10    11   ar
    11    11    12    2
    12    11    13   ar
    13    13    14   ar
    14    14    15   ar
    15    15    16   ar
    16    16    17   ar
    17    17    18   ar
    18    18    19   ar
    19     5    20   ar
    20    20     2   ar
    21    19    10   ar
    22    19    14   ar
    23     1    21    1
    24     1    22    1
    25     1    23    1
    26     6    24    1
    27     9    25    1
    28     9    26    1
    29    15    27    1
    30    16    28    1
    31    17    29    1
    32    18    30    1
