@<TRIPOS>MOLECULE
*****
 33 35 0 0 0
SMALL
GASTEIGER

@<TRIPOS>ATOM
      1 C          -2.9204    2.8149   -0.9100 C.3     1  UNL1       -0.0200
      2 C          -2.0280    1.6228   -0.7336 C.ar    1  UNL1        0.0683
      3 N          -0.8365    1.6958   -1.3623 N.ar    1  UNL1       -0.1521
      4 N           0.0510    0.6648   -1.2652 N.ar    1  UNL1       -0.1335
      5 C          -0.2378   -0.4441   -0.5514 C.ar    1  UNL1        0.1492
      6 N           0.6858   -1.5187   -0.4986 N.pl3   1  UNL1       -0.3231
      7 C           1.9630   -1.2885   -1.1654 C.3     1  UNL1        0.0358
      8 C           2.9282   -0.5756   -0.2514 C.ar    1  UNL1       -0.0275
      9 C           3.4916   -1.2330    0.8470 C.ar    1  UNL1       -0.0389
     10 C           4.3725   -0.5371    1.6601 C.ar    1  UNL1        0.0279
     11 N           4.7253    0.7502    1.4594 N.ar    1  UNL1       -0.2632
     12 C           4.1551    1.3734    0.4057 C.ar    1  UNL1        0.0279
     13 C           3.2666    0.7632   -0.4658 C.ar    1  UNL1       -0.0389
     14 C          -1.4692   -0.5568    0.1329 C.ar    1  UNL1        0.0254
     15 C          -1.8169   -1.6798    0.9248 C.ar    1  UNL1       -0.0506
     16 C          -3.0443   -1.7647    1.5827 C.ar    1  UNL1       -0.0611
     17 C          -3.9564   -0.7265    1.4709 C.ar    1  UNL1       -0.0611
     18 C          -3.6361    0.3970    0.7084 C.ar    1  UNL1       -0.0522
     19 C          -2.3956    0.5059    0.0335 C.ar    1  UNL1        0.0082
     20 H          -3.8585    2.5234   -1.3925 H       1  UNL1        0.0293
     21 H          -3.1340    3.2802    0.0573 H       1  UNL1        0.0293
     22 H          -2.4418    3.5697   -1.5433 H       1  UNL1        0.0293
     23 H           0.2142   -2.3350   -0.8773 H       1  UNL1        0.1479
     24 H           2.4004   -2.2657   -1.4088 H       1  UNL1        0.0511
     25 H           1.8570   -0.7795   -2.1319 H       1  UNL1        0.0511
     26 H           3.2413   -2.2641    1.0716 H       1  UNL1        0.0636
     27 H           4.8294   -1.0120    2.5233 H       1  UNL1        0.0829
     28 H           4.4367    2.4143    0.2752 H       1  UNL1        0.0829
     29 H           2.8344    1.3296   -1.2849 H       1  UNL1        0.0636
     30 H          -1.1117   -2.4995    1.0498 H       1  UNL1        0.0625
     31 H          -3.2794   -2.6376    2.1861 H       1  UNL1        0.0618
     32 H          -4.9138   -0.7832    1.9827 H       1  UNL1        0.0618
     33 H          -4.3721    1.1962    0.6510 H       1  UNL1        0.0624
@<TRIPOS>BOND
     1     1     2    1
     2     2     3   ar
     3     3     4   ar
     4     4     5   ar
     5     5     6    1
     6     6     7    1
     7     7     8    1
     8     8     9   ar
     9     9    10   ar
    10    10    11   ar
    11    11    12   ar
    12    12    13   ar
    13     5    14   ar
    14    14    15   ar
    15    15    16   ar
    16    16    17   ar
    17    17    18   ar
    18    18    19   ar
    19    19     2   ar
    20    13     8   ar
    21    19    14   ar
    22     1    20    1
    23     1    21    1
    24     1    22    1
    25     6    23    1
    26     7    24    1
    27     7    25    1
    28     9    26    1
    29    10    27    1
    30    12    28    1
    31    13    29    1
    32    15    30    1
    33    16    31    1
    34    17    32    1
    35    18    33    1
