@<TRIPOS>MOLECULE
*****
 36 41 0 0 0
SMALL
GASTEIGER

@<TRIPOS>ATOM
      1 SI         -4.4020    0.6879   -1.4080 Si      1  UNL1        0.0000
      2 C          -5.9109    0.4821   -0.2949 C.2     1  UNL1        0.0000
      3 C          -5.5690   -0.0183    0.9067 C.2     1  UNL1        0.0000
      4 C          -4.1498   -0.2819    1.0878 C.2     1  UNL1        0.0000
      5 C          -3.3771   -0.0043    0.0184 C.2     1  UNL1        0.0000
      6 C          -1.9348   -0.1354   -0.0641 C.ar    1  UNL1        0.0000
      7 C          -1.0615    0.8593    0.4555 C.ar    1  UNL1        0.0000
      8 C           0.3384    0.6986    0.3512 C.ar    1  UNL1        0.0000
      9 N           1.4026    1.5013    0.7589 N.ar    1  UNL1        0.0000
     10 C           2.5090    0.8250    0.3899 C.ar    1  UNL1        0.0000
     11 C           3.8196    1.0357    0.4852 C.ar    1  UNL1        0.0000
     12 N           4.5981    2.0013    0.9823 N.ar    1  UNL1        0.0000
     13 C           5.8847    1.5499    0.7312 C.ar    1  UNL1        0.0000
     14 C           5.8622    0.3114    0.0830 C.ar    1  UNL1        0.0000
     15 C           4.4883    0.0038   -0.0624 C.ar    1  UNL1        0.0000
     16 N           3.5263   -0.8651   -0.5059 N.ar    1  UNL1        0.0000
     17 C           2.2865   -0.3594   -0.2273 C.ar    1  UNL1        0.0000
     18 C           0.8999   -0.4275   -0.2462 C.ar    1  UNL1        0.0000
     19 C           0.1007   -1.4661   -0.7706 C.ar    1  UNL1        0.0000
     20 C           0.5164   -2.6189   -1.3649 C.ar    1  UNL1        0.0000
     21 S          -0.8727   -3.5395   -1.8027 S.2     1  UNL1        0.0000
     22 C          -1.9603   -2.3505   -1.1715 C.ar    1  UNL1        0.0000
     23 C          -1.3005   -1.2586   -0.6449 C.ar    1  UNL1        0.0000
     24 H          -4.1215    2.1185   -1.6893 H       1  UNL1        0.0000
     25 H          -4.4627   -0.2235   -2.5782 H       1  UNL1        0.0000
     26 H          -6.9002    0.7465   -0.6331 H       1  UNL1        0.0000
     27 H          -6.2773   -0.2185    1.7012 H       1  UNL1        0.0000
     28 H          -3.7724   -0.6704    2.0263 H       1  UNL1        0.0000
     29 H          -1.4734    1.7468    0.9300 H       1  UNL1        0.0000
     30 H           1.3691    2.3947    1.2295 H       1  UNL1        0.0000
     31 H           4.2990    2.8556    1.4334 H       1  UNL1        0.0000
     32 H           6.7273    2.1558    1.0389 H       1  UNL1        0.0000
     33 H           6.7199   -0.2676   -0.2298 H       1  UNL1        0.0000
     34 H           3.7090   -1.7446   -0.9673 H       1  UNL1        0.0000
     35 H           1.5122   -2.9838   -1.5668 H       1  UNL1        0.0000
     36 H          -3.0230   -2.5403   -1.2288 H       1  UNL1        0.0000
@<TRIPOS>BOND
     1     1     2    1
     2     2     3    2
     3     3     4    1
     4     4     5    2
     5     5     6    1
     6     6     7   ar
     7     7     8   ar
     8     8     9   ar
     9     9    10   ar
    10    10    11   ar
    11    11    12   ar
    12    12    13   ar
    13    13    14   ar
    14    14    15   ar
    15    15    16   ar
    16    16    17   ar
    17    17    18   ar
    18    18    19   ar
    19    19    20   ar
    20    20    21   ar
    21    21    22   ar
    22    22    23   ar
    23     5     1    1
    24    23     6   ar
    25    18     8   ar
    26    23    19   ar
    27    17    10   ar
    28    15    11   ar
    29     1    24    1
    30     1    25    1
    31     2    26    1
    32     3    27    1
    33     4    28    1
    34     7    29    1
    35     9    30    1
    36    12    31    1
    37    13    32    1
    38    14    33    1
    39    16    34    1
    40    20    35    1
    41    22    36    1
