@<TRIPOS>MOLECULE
*****
 40 43 0 0 0
SMALL
GASTEIGER

@<TRIPOS>ATOM
      1 C           4.7911   -2.0187   -1.4117 C.3     1  UNL1       -0.0029
      2 C           3.6847   -2.0775   -0.4339 C.ar    1  UNL1        0.1480
      3 N           2.8289   -3.0668   -0.2608 N.ar    1  UNL1       -0.1322
      4 N           1.9644   -2.7109    0.7519 N.ar    1  UNL1       -0.1209
      5 C           2.2977   -1.5065    1.1572 C.ar    1  UNL1        0.2088
      6 S           1.5110   -0.6407    2.4289 S.3     1  UNL1       -0.0751
      7 C           0.9479    0.8997    1.6643 C.3     1  UNL1        0.0785
      8 C           0.4045    0.7139    0.2524 C.2     1  UNL1        0.2345
      9 O           1.1768    0.6792   -0.7090 O.2     1  UNL1       -0.2740
     10 N          -0.9870    0.5924    0.1747 N.am    1  UNL1       -0.2375
     11 C          -1.8149    1.7262    0.5115 C.ar    1  UNL1        0.0551
     12 C          -1.2232    3.0069    0.6228 C.ar    1  UNL1       -0.0388
     13 C          -1.9682    4.1429    0.9529 C.ar    1  UNL1       -0.0599
     14 C          -3.3316    4.0323    1.1712 C.ar    1  UNL1       -0.0606
     15 C          -3.9437    2.7893    1.0424 C.ar    1  UNL1       -0.0462
     16 C          -3.2005    1.6426    0.7037 C.ar    1  UNL1        0.0345
     17 S          -4.1113    0.1351    0.5746 S.3     1  UNL1       -0.0857
     18 C          -2.9591   -0.8667   -0.3245 C.ar    1  UNL1        0.0345
     19 C          -3.4905   -2.0388   -0.8979 C.ar    1  UNL1       -0.0462
     20 C          -2.6711   -2.9561   -1.5458 C.ar    1  UNL1       -0.0606
     21 C          -1.3103   -2.7127   -1.6150 C.ar    1  UNL1       -0.0599
     22 C          -0.7784   -1.5476   -1.0516 C.ar    1  UNL1       -0.0388
     23 C          -1.5845   -0.5859   -0.4070 C.ar    1  UNL1        0.0551
     24 N           3.3913   -1.0695    0.4511 N.ar    1  UNL1       -0.2283
     25 N           4.0842    0.1807    0.5597 N.pl3   1  UNL1       -0.2948
     26 H           5.7538   -1.9039   -0.9042 H       1  UNL1        0.0309
     27 H           4.6557   -1.1805   -2.1022 H       1  UNL1        0.0309
     28 H           4.8296   -2.9391   -2.0028 H       1  UNL1        0.0309
     29 H           1.7714    1.6198    1.6234 H       1  UNL1        0.0476
     30 H           0.1914    1.3263    2.3280 H       1  UNL1        0.0476
     31 H          -0.1675    3.1645    0.4147 H       1  UNL1        0.0637
     32 H          -1.4820    5.1130    1.0247 H       1  UNL1        0.0618
     33 H          -3.9221    4.9086    1.4264 H       1  UNL1        0.0618
     34 H          -5.0183    2.7182    1.2043 H       1  UNL1        0.0629
     35 H          -4.5552   -2.2536   -0.8249 H       1  UNL1        0.0629
     36 H          -3.0901   -3.8614   -1.9761 H       1  UNL1        0.0618
     37 H          -0.6465   -3.4268   -2.0977 H       1  UNL1        0.0618
     38 H           0.2968   -1.4279   -1.1494 H       1  UNL1        0.0637
     39 H           3.6042    0.8798   -0.0094 H       1  UNL1        0.1627
     40 H           4.0705    0.5201    1.5190 H       1  UNL1        0.1627
@<TRIPOS>BOND
     1     1     2    1
     2     2     3   ar
     3     3     4   ar
     4     4     5   ar
     5     5     6    1
     6     6     7    1
     7     7     8    1
     8     8     9    2
     9     8    10   am
    10    10    11    1
    11    11    12   ar
    12    12    13   ar
    13    13    14   ar
    14    14    15   ar
    15    15    16   ar
    16    16    17    1
    17    17    18    1
    18    18    19   ar
    19    19    20   ar
    20    20    21   ar
    21    21    22   ar
    22    22    23   ar
    23     5    24   ar
    24    24    25    1
    25    24     2   ar
    26    23    10    1
    27    16    11   ar
    28    23    18   ar
    29     1    26    1
    30     1    27    1
    31     1    28    1
    32     7    29    1
    33     7    30    1
    34    12    31    1
    35    13    32    1
    36    14    33    1
    37    15    34    1
    38    19    35    1
    39    20    36    1
    40    21    37    1
    41    22    38    1
    42    25    39    1
    43    25    40    1
