@<TRIPOS>MOLECULE
*****
 27 28 0 0 0
SMALL
GASTEIGER

@<TRIPOS>ATOM
      1 C           5.3657   -0.0312    0.1334 C.3     1  UNL1       -0.0029
      2 C           3.9233    0.1812    0.3752 C.ar    1  UNL1        0.1480
      3 N           3.3735    0.9009    1.3362 N.ar    1  UNL1       -0.1322
      4 N           2.0036    0.8302    1.1952 N.ar    1  UNL1       -0.1209
      5 C           1.7522    0.0710    0.1541 C.ar    1  UNL1        0.2087
      6 S           0.2026   -0.3577   -0.4800 S.3     1  UNL1       -0.0798
      7 C          -0.8757    0.5266    0.6877 C.3     1  UNL1        0.0263
      8 C          -2.3318    0.3156    0.3530 C.ar    1  UNL1       -0.0371
      9 C          -2.9931    1.1820   -0.5303 C.ar    1  UNL1       -0.0578
     10 C          -4.3367    0.9783   -0.8490 C.ar    1  UNL1       -0.0615
     11 C          -5.0314   -0.0942   -0.2931 C.ar    1  UNL1       -0.0617
     12 C          -4.3836   -0.9659    0.5801 C.ar    1  UNL1       -0.0615
     13 C          -3.0400   -0.7645    0.9004 C.ar    1  UNL1       -0.0578
     14 N           2.9297   -0.3637   -0.3987 N.ar    1  UNL1       -0.2283
     15 N           3.1098   -1.2097   -1.5437 N.pl3   1  UNL1       -0.2948
     16 H           5.6187   -1.0940    0.1979 H       1  UNL1        0.0309
     17 H           5.6532    0.3390   -0.8555 H       1  UNL1        0.0309
     18 H           5.9620    0.5030    0.8797 H       1  UNL1        0.0309
     19 H          -0.6458    1.5983    0.6646 H       1  UNL1        0.0429
     20 H          -0.6800    0.1781    1.7086 H       1  UNL1        0.0429
     21 H          -2.4634    2.0211   -0.9762 H       1  UNL1        0.0621
     22 H          -4.8411    1.6563   -1.5326 H       1  UNL1        0.0618
     23 H          -6.0775   -0.2520   -0.5421 H       1  UNL1        0.0618
     24 H          -4.9245   -1.8043    1.0111 H       1  UNL1        0.0618
     25 H          -2.5472   -1.4566    1.5800 H       1  UNL1        0.0621
     26 H           2.6545   -0.7932   -2.3563 H       1  UNL1        0.1627
     27 H           2.6231   -2.0948   -1.3996 H       1  UNL1        0.1627
@<TRIPOS>BOND
     1     1     2    1
     2     2     3   ar
     3     3     4   ar
     4     4     5   ar
     5     5     6    1
     6     6     7    1
     7     7     8    1
     8     8     9   ar
     9     9    10   ar
    10    10    11   ar
    11    11    12   ar
    12    12    13   ar
    13     5    14   ar
    14    14    15    1
    15    14     2   ar
    16    13     8   ar
    17     1    16    1
    18     1    17    1
    19     1    18    1
    20     7    19    1
    21     7    20    1
    22     9    21    1
    23    10    22    1
    24    11    23    1
    25    12    24    1
    26    13    25    1
    27    15    26    1
    28    15    27    1
