@<TRIPOS>MOLECULE
*****
 22 24 0 0 0
SMALL
GASTEIGER

@<TRIPOS>ATOM
      1 C           3.9414    1.1183    0.3143 C.3     1  UNL1       -0.0027
      2 C           3.3707   -0.2412    0.3380 C.ar    1  UNL1        0.1525
      3 N           4.0100   -1.3979    0.4664 N.ar    1  UNL1       -0.1320
      4 N           3.0701   -2.4275    0.4355 N.ar    1  UNL1       -0.1203
      5 C           1.9173   -1.8412    0.2907 C.ar    1  UNL1        0.2183
      6 S           0.2808   -2.2966    0.1597 S.2     1  UNL1       -0.0247
      7 C          -0.0868   -0.5430    0.0230 C.ar    1  UNL1        0.1505
      8 C          -1.5027   -0.0934   -0.1391 C.ar    1  UNL1        0.0977
      9 C          -2.5823   -0.9717   -0.1921 C.ar    1  UNL1       -0.0336
     10 C          -3.8651   -0.4462   -0.3458 C.ar    1  UNL1       -0.0582
     11 C          -4.0354    0.9292   -0.4417 C.ar    1  UNL1       -0.0436
     12 C          -2.9109    1.7320   -0.3800 C.ar    1  UNL1        0.0283
     13 N          -1.6574    1.2538   -0.2319 N.ar    1  UNL1       -0.2528
     14 N           0.9358    0.2778    0.0739 N.ar    1  UNL1       -0.1540
     15 N           2.0341   -0.4980    0.2244 N.ar    1  UNL1       -0.1902
     16 H           3.5413    1.7213    1.1353 H       1  UNL1        0.0309
     17 H           3.7107    1.6194   -0.6308 H       1  UNL1        0.0309
     18 H           5.0299    1.0804    0.4209 H       1  UNL1        0.0309
     19 H          -2.4649   -2.0465   -0.1186 H       1  UNL1        0.0640
     20 H          -4.7264   -1.1082   -0.3903 H       1  UNL1        0.0619
     21 H          -5.0213    1.3656   -0.5617 H       1  UNL1        0.0633
     22 H          -2.9890    2.8137   -0.4501 H       1  UNL1        0.0830
@<TRIPOS>BOND
     1     1     2    1
     2     2     3   ar
     3     3     4   ar
     4     4     5   ar
     5     5     6   ar
     6     6     7   ar
     7     7     8    1
     8     8     9   ar
     9     9    10   ar
    10    10    11   ar
    11    11    12   ar
    12    12    13   ar
    13     7    14   ar
    14    14    15   ar
    15    15     2   ar
    16    15     5   ar
    17    13     8   ar
    18     1    16    1
    19     1    17    1
    20     1    18    1
    21     9    19    1
    22    10    20    1
    23    11    21    1
    24    12    22    1
