@<TRIPOS>MOLECULE
*****
 30 33 0 0 0
SMALL
GASTEIGER

@<TRIPOS>ATOM
      1 C          -5.4286   -0.6607    0.1532 C.3     1  UNL1       -0.0027
      2 C          -4.5918    0.5355   -0.0550 C.ar    1  UNL1        0.1525
      3 N          -4.9801    1.8017   -0.1448 N.ar    1  UNL1       -0.1320
      4 N          -3.8527    2.5980   -0.3420 N.ar    1  UNL1       -0.1203
      5 C          -2.8451    1.7752   -0.3611 C.ar    1  UNL1        0.2183
      6 S          -1.1529    1.8567   -0.5438 S.2     1  UNL1       -0.0262
      7 C          -1.1628    0.0934   -0.3483 C.ar    1  UNL1        0.1331
      8 C           0.0773   -0.6673   -0.4203 C.ar    1  UNL1        0.0194
      9 C           0.0493   -2.0091   -0.7785 C.ar    1  UNL1       -0.0140
     10 S           1.5879   -2.7350   -0.8557 S.2     1  UNL1       -0.1006
     11 C           2.3411   -1.2923   -0.3787 C.ar    1  UNL1       -0.0064
     12 C           1.4447   -0.2591   -0.1516 C.ar    1  UNL1       -0.0274
     13 C           1.9379    1.0870    0.3146 C.3     1  UNL1       -0.0263
     14 C           3.3748    1.0332    0.8562 C.3     1  UNL1       -0.0487
     15 C           4.2937    0.2309   -0.0701 C.3     1  UNL1       -0.0483
     16 C           3.8275   -1.2246   -0.1902 C.3     1  UNL1       -0.0211
     17 N          -2.3143   -0.5034   -0.1806 N.ar    1  UNL1       -0.1555
     18 N          -3.2334    0.4926   -0.1887 N.ar    1  UNL1       -0.1902
     19 H          -5.1450   -1.1765    1.0757 H       1  UNL1        0.0309
     20 H          -5.3223   -1.3585   -0.6831 H       1  UNL1        0.0309
     21 H          -6.4843   -0.3831    0.2309 H       1  UNL1        0.0309
     22 H          -0.8216   -2.6049   -1.0208 H       1  UNL1        0.0700
     23 H           1.9074    1.7831   -0.5322 H       1  UNL1        0.0314
     24 H           1.2877    1.4782    1.1043 H       1  UNL1        0.0314
     25 H           3.7584    2.0530    0.9737 H       1  UNL1        0.0268
     26 H           3.3762    0.5735    1.8529 H       1  UNL1        0.0268
     27 H           4.3032    0.6993   -1.0627 H       1  UNL1        0.0269
     28 H           5.3227    0.2561    0.3057 H       1  UNL1        0.0269
     29 H           4.3521   -1.7064   -1.0233 H       1  UNL1        0.0318
     30 H           4.0929   -1.7665    0.7262 H       1  UNL1        0.0318
@<TRIPOS>BOND
     1     1     2    1
     2     2     3   ar
     3     3     4   ar
     4     4     5   ar
     5     5     6   ar
     6     6     7   ar
     7     7     8    1
     8     8     9   ar
     9     9    10   ar
    10    10    11   ar
    11    11    12   ar
    12    12    13    1
    13    13    14    1
    14    14    15    1
    15    15    16    1
    16     7    17   ar
    17    17    18   ar
    18    18     2   ar
    19    18     5   ar
    20    12     8   ar
    21    16    11    1
    22     1    19    1
    23     1    20    1
    24     1    21    1
    25     9    22    1
    26    13    23    1
    27    13    24    1
    28    14    25    1
    29    14    26    1
    30    15    27    1
    31    15    28    1
    32    16    29    1
    33    16    30    1
