@<TRIPOS>MOLECULE
*****
 29 30 0 0 0
SMALL
GASTEIGER

@<TRIPOS>ATOM
      1 C          -2.2547    2.6300   -1.3694 C.3     1  UNL1       -0.0183
      2 C          -2.4197    1.2814   -0.7786 C.ar    1  UNL1        0.0929
      3 N          -3.5340    0.5748   -1.0039 N.ar    1  UNL1       -0.0826
      4 O          -3.3881   -0.5942   -0.2835 O.2     1  UNL1       -0.3589
      5 C          -2.1903   -0.5881    0.3605 C.ar    1  UNL1        0.1466
      6 C          -1.9324   -1.7467    1.2357 C.3     1  UNL1       -0.0029
      7 C          -1.5064    0.5659    0.0401 C.ar    1  UNL1        0.1012
      8 C          -0.2085    1.0004    0.5074 C.2     1  UNL1        0.2519
      9 O          -0.0690    2.1182    0.9983 O.2     1  UNL1       -0.2698
     10 N           0.8644    0.1252    0.3656 N.am    1  UNL1       -0.2930
     11 C           0.9049   -1.0141   -0.5611 C.3     1  UNL1        0.0385
     12 C           2.2880   -1.1428   -1.2102 C.3     1  UNL1        0.0635
     13 O           3.3473   -1.3122   -0.2589 O.3     1  UNL1       -0.3767
     14 C           3.1162   -0.6622    0.9998 C.3     1  UNL1        0.0635
     15 C           2.1608    0.5294    0.9104 C.3     1  UNL1        0.0385
     16 H          -1.2788    2.7203   -1.8574 H       1  UNL1        0.0294
     17 H          -3.0243    2.8374   -2.1202 H       1  UNL1        0.0294
     18 H          -2.3244    3.3965   -0.5911 H       1  UNL1        0.0294
     19 H          -2.8205   -1.9872    1.8288 H       1  UNL1        0.0309
     20 H          -1.1123   -1.5462    1.9315 H       1  UNL1        0.0309
     21 H          -1.6722   -2.6256    0.6383 H       1  UNL1        0.0309
     22 H           0.1395   -0.9137   -1.3352 H       1  UNL1        0.0487
     23 H           0.6989   -1.9096    0.0344 H       1  UNL1        0.0487
     24 H           2.5148   -0.2515   -1.8068 H       1  UNL1        0.0575
     25 H           2.3107   -2.0040   -1.8854 H       1  UNL1        0.0575
     26 H           4.0876   -0.3434    1.3905 H       1  UNL1        0.0575
     27 H           2.7170   -1.4163    1.6881 H       1  UNL1        0.0575
     28 H           2.0177    0.9853    1.8960 H       1  UNL1        0.0487
     29 H           2.5677    1.2928    0.2365 H       1  UNL1        0.0487
@<TRIPOS>BOND
     1     1     2    1
     2     2     3   ar
     3     3     4   ar
     4     4     5   ar
     5     5     6    1
     6     5     7   ar
     7     7     8    1
     8     8     9    2
     9     8    10   am
    10    10    11    1
    11    11    12    1
    12    12    13    1
    13    13    14    1
    14    14    15    1
    15     7     2   ar
    16    15    10    1
    17     1    16    1
    18     1    17    1
    19     1    18    1
    20     6    19    1
    21     6    20    1
    22     6    21    1
    23    11    22    1
    24    11    23    1
    25    12    24    1
    26    12    25    1
    27    14    26    1
    28    14    27    1
    29    15    28    1
    30    15    29    1
