@<TRIPOS>MOLECULE
*****
 45 47 0 0 0
SMALL
GASTEIGER

@<TRIPOS>ATOM
      1 C          -5.9499    0.8951   -0.8642 C.3     1  UNL1       -0.0060
      2 C          -4.7027    0.3702   -0.2667 C.ar    1  UNL1        0.1082
      3 O          -4.1254    1.1524    0.6853 O.2     1  UNL1       -0.4416
      4 C          -2.9951    0.5220    1.1036 C.ar    1  UNL1        0.2332
      5 N          -2.1835    1.0371    2.0330 N.ar    1  UNL1       -0.1862
      6 C          -1.1415    0.2375    2.2725 C.ar    1  UNL1        0.1936
      7 S           0.0707    0.8098    3.4414 S.3     1  UNL1       -0.0766
      8 C           0.5207    2.3611    2.6048 C.3     1  UNL1        0.0776
      9 C           1.0631    2.1682    1.1944 C.2     1  UNL1        0.2235
     10 O           0.9600    3.0522    0.3454 O.2     1  UNL1       -0.2749
     11 N           1.7340    0.9894    0.9574 N.am    1  UNL1       -0.3118
     12 C           2.3203    0.6607   -0.3355 C.3     1  UNL1        0.0231
     13 C           3.6546    1.4086   -0.5150 C.3     1  UNL1       -0.0345
     14 C           4.6278    0.6386   -1.3979 C.3     1  UNL1       -0.0514
     15 C           4.9756   -0.7245   -0.7970 C.3     1  UNL1       -0.0529
     16 C           3.8262   -1.3551   -0.0071 C.3     1  UNL1       -0.0514
     17 C           2.4667   -0.8633   -0.4913 C.3     1  UNL1       -0.0345
     18 N          -0.8810   -0.9583    1.7070 N.ar    1  UNL1       -0.2065
     19 C          -1.7248   -1.4370    0.7743 C.ar    1  UNL1        0.1318
     20 N          -1.4143   -2.6720    0.2225 N.pl3   1  UNL1       -0.3424
     21 C          -2.8480   -0.6802    0.4289 C.ar    1  UNL1        0.0825
     22 C          -3.9541   -0.7765   -0.4758 C.ar    1  UNL1        0.0029
     23 C          -4.2338   -1.8665   -1.4417 C.3     1  UNL1       -0.0357
     24 H          -5.7595    1.2613   -1.8773 H       1  UNL1        0.0308
     25 H          -6.7112    0.1110   -0.9173 H       1  UNL1        0.0308
     26 H          -6.3571    1.7217   -0.2727 H       1  UNL1        0.0308
     27 H           1.2945    2.8615    3.1953 H       1  UNL1        0.0475
     28 H          -0.3541    3.0175    2.5610 H       1  UNL1        0.0475
     29 H           1.7524    0.2927    1.6954 H       1  UNL1        0.1490
     30 H           1.6144    1.0066   -1.1026 H       1  UNL1        0.0498
     31 H           4.1284    1.5870    0.4600 H       1  UNL1        0.0283
     32 H           3.4647    2.3995   -0.9453 H       1  UNL1        0.0283
     33 H           5.5460    1.2185   -1.5480 H       1  UNL1        0.0266
     34 H           4.1816    0.4991   -2.3905 H       1  UNL1        0.0266
     35 H           5.8447   -0.6267   -0.1342 H       1  UNL1        0.0265
     36 H           5.2841   -1.3972   -1.6068 H       1  UNL1        0.0265
     37 H           3.9407   -1.1138    1.0570 H       1  UNL1        0.0266
     38 H           3.8837   -2.4470   -0.0851 H       1  UNL1        0.0266
     39 H           1.6665   -1.3913    0.0405 H       1  UNL1        0.0283
     40 H           2.3590   -1.1261   -1.5520 H       1  UNL1        0.0283
     41 H          -2.2061   -3.2275   -0.0687 H       1  UNL1        0.1437
     42 H          -0.7232   -3.1552    0.7871 H       1  UNL1        0.1437
     43 H          -4.4704   -2.7948   -0.9116 H       1  UNL1        0.0279
     44 H          -3.3639   -2.0430   -2.0828 H       1  UNL1        0.0279
     45 H          -5.0809   -1.6235   -2.0909 H       1  UNL1        0.0279
@<TRIPOS>BOND
     1     1     2    1
     2     2     3   ar
     3     3     4   ar
     4     4     5   ar
     5     5     6   ar
     6     6     7    1
     7     7     8    1
     8     8     9    1
     9     9    10    2
    10     9    11   am
    11    11    12    1
    12    12    13    1
    13    13    14    1
    14    14    15    1
    15    15    16    1
    16    16    17    1
    17     6    18   ar
    18    18    19   ar
    19    19    20    1
    20    19    21   ar
    21    21    22   ar
    22    22    23    1
    23    22     2   ar
    24    21     4   ar
    25    17    12    1
    26     1    24    1
    27     1    25    1
    28     1    26    1
    29     8    27    1
    30     8    28    1
    31    11    29    1
    32    12    30    1
    33    13    31    1
    34    13    32    1
    35    14    33    1
    36    14    34    1
    37    15    35    1
    38    15    36    1
    39    16    37    1
    40    16    38    1
    41    17    39    1
    42    17    40    1
    43    20    41    1
    44    20    42    1
    45    23    43    1
    46    23    44    1
    47    23    45    1
