@<TRIPOS>MOLECULE
*****
 35 37 0 0 0
SMALL
GASTEIGER

@<TRIPOS>ATOM
      1 C          -0.2392   -3.9484    0.2447 C.3     1  UNL1       -0.0029
      2 C          -1.0227   -2.6988    0.2998 C.ar    1  UNL1        0.1469
      3 O          -2.3537   -2.8356    0.0630 O.2     1  UNL1       -0.3586
      4 N          -2.9776   -1.6136    0.1843 N.ar    1  UNL1       -0.0772
      5 C          -2.0149   -0.7369    0.5050 C.ar    1  UNL1        0.1285
      6 C          -2.3285    0.6709    0.7085 C.ar    1  UNL1        0.0410
      7 C          -2.0537    1.6199   -0.2917 C.ar    1  UNL1        0.0517
      8 CL         -1.3352    1.1871   -1.8087 Cl      1  UNL1       -0.0828
      9 C          -2.3551    2.9728   -0.0938 C.ar    1  UNL1       -0.0427
     10 C          -2.9294    3.3960    1.1027 C.ar    1  UNL1       -0.0590
     11 C          -3.1995    2.4673    2.1056 C.ar    1  UNL1       -0.0427
     12 C          -2.9001    1.1129    1.9137 C.ar    1  UNL1        0.0517
     13 CL         -3.2436    0.0372    3.2276 Cl      1  UNL1       -0.0828
     14 C          -0.7388   -1.3738    0.5646 C.ar    1  UNL1        0.1060
     15 C           0.5342   -0.7534    0.8669 C.2     1  UNL1        0.2499
     16 O           0.6128    0.2761    1.5292 O.2     1  UNL1       -0.2700
     17 N           1.6358   -1.3704    0.3163 N.am    1  UNL1       -0.3041
     18 C           2.9242   -0.7151    0.3277 C.3     1  UNL1        0.0700
     19 C           3.0308    0.1128   -0.8979 C.ar    1  UNL1        0.1218
     20 C           2.7567    1.4366   -1.1725 C.ar    1  UNL1       -0.0192
     21 C           3.0327    1.6235   -2.5476 C.ar    1  UNL1       -0.0236
     22 C           3.4541    0.4042   -3.0238 C.ar    1  UNL1        0.0921
     23 O           3.4531   -0.5218   -2.0303 O.2     1  UNL1       -0.4662
     24 H          -0.8815   -4.8239    0.3841 H       1  UNL1        0.0309
     25 H           0.2585   -4.0444   -0.7249 H       1  UNL1        0.0309
     26 H           0.5217   -3.9679    1.0308 H       1  UNL1        0.0309
     27 H          -2.1420    3.7024   -0.8718 H       1  UNL1        0.0632
     28 H          -3.1616    4.4472    1.2558 H       1  UNL1        0.0618
     29 H          -3.6404    2.8036    3.0415 H       1  UNL1        0.0632
     30 H           1.4829   -2.0140   -0.4468 H       1  UNL1        0.1495
     31 H           3.0405   -0.1047    1.2287 H       1  UNL1        0.0543
     32 H           3.6911   -1.4959    0.3351 H       1  UNL1        0.0543
     33 H           2.3884    2.1674   -0.4648 H       1  UNL1        0.0652
     34 H           2.9303    2.5323   -3.1236 H       1  UNL1        0.0649
     35 H           3.7698    0.0484   -3.9946 H       1  UNL1        0.1029
@<TRIPOS>BOND
     1     1     2    1
     2     2     3   ar
     3     3     4   ar
     4     4     5   ar
     5     5     6    1
     6     6     7   ar
     7     7     8    1
     8     7     9   ar
     9     9    10   ar
    10    10    11   ar
    11    11    12   ar
    12    12    13    1
    13     5    14   ar
    14    14    15    1
    15    15    16    2
    16    15    17   am
    17    17    18    1
    18    18    19    1
    19    19    20   ar
    20    20    21   ar
    21    21    22   ar
    22    22    23   ar
    23    14     2   ar
    24    23    19   ar
    25    12     6   ar
    26     1    24    1
    27     1    25    1
    28     1    26    1
    29     9    27    1
    30    10    28    1
    31    11    29    1
    32    17    30    1
    33    18    31    1
    34    18    32    1
    35    20    33    1
    36    21    34    1
    37    22    35    1
