@<TRIPOS>MOLECULE
*****
 39 41 0 0 0
SMALL
GASTEIGER

@<TRIPOS>ATOM
      1 C          -0.6310    0.7417   -2.5361 C.3     1  UNL1       -0.0029
      2 C           0.7027    0.4026   -1.9973 C.ar    1  UNL1        0.1488
      3 O           1.6384    0.0782   -2.9228 O.2     1  UNL1       -0.3585
      4 N           2.8227   -0.2247   -2.2984 N.ar    1  UNL1       -0.0772
      5 C           2.6129   -0.0659   -0.9811 C.ar    1  UNL1        0.1276
      6 C           3.7088   -0.3010   -0.0442 C.ar    1  UNL1        0.0045
      7 C           4.0470    0.6485    0.9283 C.ar    1  UNL1       -0.0524
      8 C           5.1071    0.4132    1.8079 C.ar    1  UNL1       -0.0611
      9 C           5.8434   -0.7667    1.7164 C.ar    1  UNL1       -0.0617
     10 C           5.5249   -1.7121    0.7435 C.ar    1  UNL1       -0.0611
     11 C           4.4647   -1.4792   -0.1354 C.ar    1  UNL1       -0.0524
     12 C           1.2562    0.3179   -0.7323 C.ar    1  UNL1        0.1282
     13 C           0.5846    0.5439    0.5302 C.2     1  UNL1        0.3451
     14 O           1.1132    0.4079    1.6254 O.2     1  UNL1       -0.2447
     15 O          -0.7199    0.9114    0.3768 O.3     1  UNL1       -0.4530
     16 C          -1.4120    1.1506    1.6018 C.3     1  UNL1        0.1551
     17 C          -2.8716    1.4495    1.3080 C.2     1  UNL1        0.2003
     18 O          -3.3936    2.5016    1.6768 O.2     1  UNL1       -0.2884
     19 C          -3.6916    0.4431    0.5675 C.ar    1  UNL1        0.0209
     20 C          -4.9380    0.8432    0.0654 C.ar    1  UNL1       -0.0511
     21 C          -5.7392   -0.0580   -0.6380 C.ar    1  UNL1       -0.0611
     22 C          -5.3031   -1.3656   -0.8408 C.ar    1  UNL1       -0.0617
     23 C          -4.0690   -1.7747   -0.3379 C.ar    1  UNL1       -0.0611
     24 C          -3.2639   -0.8756    0.3673 C.ar    1  UNL1       -0.0511
     25 H          -1.3784    0.0204   -2.1926 H       1  UNL1        0.0309
     26 H          -0.9349    1.7423   -2.2140 H       1  UNL1        0.0309
     27 H          -0.6330    0.7293   -3.6308 H       1  UNL1        0.0309
     28 H           3.4939    1.5806    1.0125 H       1  UNL1        0.0624
     29 H           5.3580    1.1532    2.5636 H       1  UNL1        0.0618
     30 H           6.6685   -0.9471    2.4006 H       1  UNL1        0.0618
     31 H           6.1031   -2.6290    0.6650 H       1  UNL1        0.0618
     32 H           4.2326   -2.2220   -0.8961 H       1  UNL1        0.0624
     33 H          -1.3518    0.2918    2.2800 H       1  UNL1        0.0782
     34 H          -0.9774    2.0290    2.0932 H       1  UNL1        0.0782
     35 H          -5.2916    1.8616    0.2187 H       1  UNL1        0.0625
     36 H          -6.7041    0.2613   -1.0247 H       1  UNL1        0.0618
     37 H          -5.9284   -2.0680   -1.3870 H       1  UNL1        0.0618
     38 H          -3.7353   -2.7986   -0.4921 H       1  UNL1        0.0618
     39 H          -2.3147   -1.2350    0.7527 H       1  UNL1        0.0625
@<TRIPOS>BOND
     1     1     2    1
     2     2     3   ar
     3     3     4   ar
     4     4     5   ar
     5     5     6    1
     6     6     7   ar
     7     7     8   ar
     8     8     9   ar
     9     9    10   ar
    10    10    11   ar
    11     5    12   ar
    12    12    13    1
    13    13    14    2
    14    13    15    1
    15    15    16    1
    16    16    17    1
    17    17    18    2
    18    17    19    1
    19    19    20   ar
    20    20    21   ar
    21    21    22   ar
    22    22    23   ar
    23    23    24   ar
    24    12     2   ar
    25    24    19   ar
    26    11     6   ar
    27     1    25    1
    28     1    26    1
    29     1    27    1
    30     7    28    1
    31     8    29    1
    32     9    30    1
    33    10    31    1
    34    11    32    1
    35    16    33    1
    36    16    34    1
    37    20    35    1
    38    21    36    1
    39    22    37    1
    40    23    38    1
    41    24    39    1
