@<TRIPOS>MOLECULE
*****
 24 25 0 0 0
SMALL
GASTEIGER

@<TRIPOS>ATOM
      1 C           3.1328   -0.7707   -0.7034 C.3     1  UNL1       -0.0448
      2 C           2.7011   -0.1453    0.6115 C.3     1  UNL1        0.0806
      3 S           1.6519    1.3116    0.3144 S.3     1  UNL1       -0.1213
      4 C           0.2074    0.6158    1.1424 C.3     1  UNL1        0.0956
      5 C          -0.9908    0.5253    0.2244 C.ar    1  UNL1       -0.0158
      6 C          -1.1587   -0.5354   -0.6846 C.ar    1  UNL1       -0.0559
      7 C          -2.2684   -0.5851   -1.5321 C.ar    1  UNL1       -0.0600
      8 C          -3.2247    0.4276   -1.4905 C.ar    1  UNL1       -0.0434
      9 C          -3.0652    1.4891   -0.6042 C.ar    1  UNL1        0.0413
     10 CL         -4.2409    2.7447   -0.5550 Cl      1  UNL1       -0.0835
     11 C          -1.9592    1.5445    0.2453 C.ar    1  UNL1       -0.0376
     12 N           0.5978   -0.6574    1.6639 N.am    1  UNL1       -0.2986
     13 C           1.8632   -1.1155    1.4220 C.2     1  UNL1        0.2268
     14 O           2.2479   -2.2069    1.8215 O.2     1  UNL1       -0.2746
     15 H           3.7682   -1.6444   -0.5193 H       1  UNL1        0.0245
     16 H           3.7096   -0.0658   -1.3117 H       1  UNL1        0.0245
     17 H           2.2763   -1.1191   -1.2923 H       1  UNL1        0.0245
     18 H           3.5664    0.1576    1.2087 H       1  UNL1        0.0505
     19 H          -0.0369    1.2383    2.0103 H       1  UNL1        0.0666
     20 H          -0.4210   -1.3341   -0.7443 H       1  UNL1        0.0621
     21 H          -2.3834   -1.4128   -2.2282 H       1  UNL1        0.0618
     22 H          -4.0852    0.3861   -2.1528 H       1  UNL1        0.0632
     23 H          -1.8497    2.3895    0.9222 H       1  UNL1        0.0636
     24 H          -0.0386   -1.2375    2.1930 H       1  UNL1        0.1501
@<TRIPOS>BOND
     1     1     2    1
     2     2     3    1
     3     3     4    1
     4     4     5    1
     5     5     6   ar
     6     6     7   ar
     7     7     8   ar
     8     8     9   ar
     9     9    10    1
    10     9    11   ar
    11     4    12    1
    12    12    13   am
    13    13    14    2
    14    13     2    1
    15    11     5   ar
    16     1    15    1
    17     1    16    1
    18     1    17    1
    19     2    18    1
    20     4    19    1
    21     6    20    1
    22     7    21    1
    23     8    22    1
    24    11    23    1
    25    12    24    1
