@<TRIPOS>MOLECULE
*****
 37 39 0 0 0
SMALL
GASTEIGER

@<TRIPOS>ATOM
      1 C          -5.8224    1.1274   -0.2454 C.3     1  UNL1       -0.0331
      2 C          -4.6335    0.2341   -0.0905 C.ar    1  UNL1       -0.0077
      3 S          -4.8731   -1.4165    0.2718 S.2     1  UNL1       -0.0735
      4 C          -3.2051   -1.7320    0.2765 C.ar    1  UNL1        0.1137
      5 N          -2.7640   -2.9783    0.5095 N.ar    1  UNL1       -0.2281
      6 C          -1.4363   -3.0576    0.4728 C.ar    1  UNL1        0.1193
      7 N          -0.5652   -2.0617    0.2613 N.ar    1  UNL1       -0.2203
      8 C          -1.0311   -0.8074    0.0501 C.ar    1  UNL1        0.1305
      9 N          -0.1195    0.2365   -0.1405 N.pl3   1  UNL1       -0.3284
     10 C           1.2722   -0.0214    0.2103 C.3     1  UNL1        0.0121
     11 C           2.0189   -0.6318   -0.9779 C.3     1  UNL1       -0.0193
     12 C           3.4287   -1.0859   -0.6096 C.3     1  UNL1        0.0256
     13 N           4.2977   -0.0048   -0.1963 N.ar    1  UNL1       -0.3368
     14 C           4.7040    0.2661    1.0798 C.ar    1  UNL1        0.0240
     15 C           5.5102    1.3747    0.9652 C.ar    1  UNL1        0.0454
     16 N           5.6043    1.7744   -0.3428 N.ar    1  UNL1       -0.2441
     17 C           4.8734    0.9186   -1.0208 C.ar    1  UNL1        0.0959
     18 C          -2.4352   -0.6048    0.0294 C.ar    1  UNL1        0.0505
     19 C          -3.2873    0.5535   -0.2194 C.ar    1  UNL1       -0.0280
     20 C          -2.7844    1.9171   -0.5793 C.3     1  UNL1       -0.0382
     21 H          -6.7555    0.6389    0.0541 H       1  UNL1        0.0283
     22 H          -5.7068    2.0238    0.3729 H       1  UNL1        0.0283
     23 H          -5.9252    1.4390   -1.2901 H       1  UNL1        0.0283
     24 H          -1.0085   -4.0414    0.6376 H       1  UNL1        0.1048
     25 H          -0.4786    1.1028    0.2437 H       1  UNL1        0.1475
     26 H           1.3575   -0.6421    1.1109 H       1  UNL1        0.0462
     27 H           1.7315    0.9424    0.4603 H       1  UNL1        0.0462
     28 H           1.4743   -1.4995   -1.3682 H       1  UNL1        0.0297
     29 H           2.0556    0.0987   -1.7962 H       1  UNL1        0.0297
     30 H           3.3993   -1.8257    0.1988 H       1  UNL1        0.0492
     31 H           3.9061   -1.5650   -1.4725 H       1  UNL1        0.0492
     32 H           4.4025   -0.3246    1.9334 H       1  UNL1        0.0825
     33 H           6.0291    1.9048    1.7534 H       1  UNL1        0.0845
     34 H           4.7264    0.9265   -2.0933 H       1  UNL1        0.1029
     35 H          -3.5888    2.5699   -0.9319 H       1  UNL1        0.0278
     36 H          -2.3259    2.3939    0.2927 H       1  UNL1        0.0278
     37 H          -2.0454    1.8572   -1.3844 H       1  UNL1        0.0278
@<TRIPOS>BOND
     1     1     2    1
     2     2     3   ar
     3     3     4   ar
     4     4     5   ar
     5     5     6   ar
     6     6     7   ar
     7     7     8   ar
     8     8     9    1
     9     9    10    1
    10    10    11    1
    11    11    12    1
    12    12    13    1
    13    13    14   ar
    14    14    15   ar
    15    15    16   ar
    16    16    17   ar
    17     8    18   ar
    18    18    19   ar
    19    19    20    1
    20    19     2   ar
    21    18     4   ar
    22    17    13   ar
    23     1    21    1
    24     1    22    1
    25     1    23    1
    26     6    24    1
    27     9    25    1
    28    10    26    1
    29    10    27    1
    30    11    28    1
    31    11    29    1
    32    12    30    1
    33    12    31    1
    34    14    32    1
    35    15    33    1
    36    17    34    1
    37    20    35    1
    38    20    36    1
    39    20    37    1
