@<TRIPOS>MOLECULE
*****
 44 50 0 0 0
SMALL
GASTEIGER

@<TRIPOS>ATOM
      1 SI          6.1126   -0.4560   -0.2380 Si      1  UNL1        0.0000
      2 C           7.1715    0.6047    0.8962 C.2     1  UNL1        0.0000
      3 C           6.4049    1.4253    1.6375 C.2     1  UNL1        0.0000
      4 C           4.9721    1.3115    1.4024 C.2     1  UNL1        0.0000
      5 C           4.6081    0.4010    0.4750 C.2     1  UNL1        0.0000
      6 C           3.2642    0.1464    0.1098 C.ar    1  UNL1        0.0000
      7 C           2.7179   -0.7337   -0.8191 C.ar    1  UNL1        0.0000
      8 C           1.2982   -0.5965   -0.8024 C.ar    1  UNL1        0.0000
      9 C           1.0355    0.3659    0.1517 C.ar    1  UNL1        0.0000
     10 O           2.2058    0.8163    0.6859 O.2     1  UNL1        0.0000
     11 C          -0.2518    0.7902    0.5110 C.ar    1  UNL1        0.0000
     12 N          -0.2841    1.7934    1.4251 N.ar    1  UNL1        0.0000
     13 C          -1.4928    2.2274    1.8279 C.ar    1  UNL1        0.0000
     14 C          -2.7029    1.6535    1.4746 C.ar    1  UNL1        0.0000
     15 C          -3.9191    2.1802    2.0624 C.ar    1  UNL1        0.0000
     16 C          -5.2032    1.6257    1.9045 C.ar    1  UNL1        0.0000
     17 C          -5.1081    0.4659    1.1629 C.ar    1  UNL1        0.0000
     18 C          -6.1286   -0.4188    0.9424 C.ar    1  UNL1        0.0000
     19 O          -5.6389   -1.5152    0.2958 O.2     1  UNL1        0.0000
     20 C          -4.3007   -1.3120    0.1045 C.ar    1  UNL1        0.0000
     21 C          -3.9315   -0.0625    0.5440 C.ar    1  UNL1        0.0000
     22 C          -2.6301    0.5332    0.5669 C.ar    1  UNL1        0.0000
     23 C          -1.3669    0.1612   -0.0735 C.ar    1  UNL1        0.0000
     24 C          -1.1191   -0.7133   -1.2080 C.ar    1  UNL1        0.0000
     25 C          -2.1113   -1.1336   -2.1226 C.ar    1  UNL1        0.0000
     26 C          -1.8495   -2.0130   -3.1810 C.ar    1  UNL1        0.0000
     27 C          -0.5632   -2.4837   -3.3933 C.ar    1  UNL1        0.0000
     28 C           0.4697   -2.0332   -2.5803 C.ar    1  UNL1        0.0000
     29 C           0.2064   -1.1331   -1.5240 C.ar    1  UNL1        0.0000
     30 H           6.1882   -1.8977    0.1099 H       1  UNL1        0.0000
     31 H           6.3413   -0.1456   -1.6721 H       1  UNL1        0.0000
     32 H           8.2469    0.5266    0.9119 H       1  UNL1        0.0000
     33 H           6.7944    2.1289    2.3631 H       1  UNL1        0.0000
     34 H           4.2733    1.9320    1.9530 H       1  UNL1        0.0000
     35 H           3.2805   -1.3989   -1.4583 H       1  UNL1        0.0000
     36 H          -1.4452    3.0675    2.5175 H       1  UNL1        0.0000
     37 H          -3.8423    3.0604    2.7058 H       1  UNL1        0.0000
     38 H          -6.0917    2.0177    2.3777 H       1  UNL1        0.0000
     39 H          -7.1778   -0.4573    1.1993 H       1  UNL1        0.0000
     40 H          -3.7821   -2.1563   -0.3261 H       1  UNL1        0.0000
     41 H          -3.1188   -0.7300   -2.0639 H       1  UNL1        0.0000
     42 H          -2.6557   -2.3116   -3.8472 H       1  UNL1        0.0000
     43 H          -0.3573   -3.1656   -4.2140 H       1  UNL1        0.0000
     44 H           1.4815   -2.3674   -2.7948 H       1  UNL1        0.0000
@<TRIPOS>BOND
     1     1     2    1
     2     2     3    2
     3     3     4    1
     4     4     5    2
     5     5     6    1
     6     6     7   ar
     7     7     8   ar
     8     8     9   ar
     9     9    10   ar
    10     9    11   ar
    11    11    12   ar
    12    12    13   ar
    13    13    14   ar
    14    14    15   ar
    15    15    16   ar
    16    16    17   ar
    17    17    18   ar
    18    18    19   ar
    19    19    20   ar
    20    20    21   ar
    21    21    22   ar
    22    22    23   ar
    23    23    24   ar
    24    24    25   ar
    25    25    26   ar
    26    26    27   ar
    27    27    28   ar
    28    28    29   ar
    29     5     1    1
    30    10     6   ar
    31    23    11   ar
    32    29    24   ar
    33    29     8   ar
    34    22    14   ar
    35    21    17   ar
    36     1    30    1
    37     1    31    1
    38     2    32    1
    39     3    33    1
    40     4    34    1
    41     7    35    1
    42    13    36    1
    43    15    37    1
    44    16    38    1
    45    18    39    1
    46    20    40    1
    47    25    41    1
    48    26    42    1
    49    27    43    1
    50    28    44    1
