@<TRIPOS>MOLECULE
*****
 43 44 0 0 0
SMALL
GASTEIGER

@<TRIPOS>ATOM
      1 C          -6.2402   -0.4576    1.3297 C.3     1  UNL1       -0.0582
      2 C          -4.8195   -0.9909    1.3188 C.3     1  UNL1        0.0076
      3 C          -4.2682   -1.0629   -0.0902 C.2     1  UNL1        0.1632
      4 O          -4.9039   -1.4993   -1.0443 O.2     1  UNL1       -0.2921
      5 C          -2.8585   -0.6664   -0.2921 C.ar    1  UNL1        0.0231
      6 C          -1.9634   -1.6744   -0.6477 C.ar    1  UNL1       -0.0139
      7 C          -0.6155   -1.3712   -0.8282 C.ar    1  UNL1        0.1450
      8 F           0.1962   -2.3923   -1.1447 F       1  UNL1       -0.2035
      9 C          -0.1110   -0.0682   -0.6567 C.ar    1  UNL1        0.0657
     10 N           1.2351    0.3066   -0.8275 N.pl3   1  UNL1       -0.3252
     11 C           2.1307   -0.6319   -1.5374 C.3     1  UNL1        0.0251
     12 C           3.4929    0.0391   -1.8404 C.3     1  UNL1        0.0147
     13 N           4.1917    0.6068   -0.6599 N.3     1  UNL1       -0.2996
     14 C           4.7199   -0.4581    0.2045 C.3     1  UNL1       -0.0038
     15 C           5.6841    0.0712    1.2612 C.3     1  UNL1       -0.0524
     16 C           3.2448    1.5105    0.0339 C.3     1  UNL1        0.0147
     17 C           1.8621    0.9009    0.3769 C.3     1  UNL1        0.0251
     18 C          -1.0532    0.9312   -0.3349 C.ar    1  UNL1       -0.0343
     19 C          -2.4248    0.6595   -0.1643 C.ar    1  UNL1       -0.0381
     20 C          -3.3623    1.7921    0.1441 C.3     1  UNL1       -0.0390
     21 H          -6.6179   -0.4006    2.3551 H       1  UNL1        0.0234
     22 H          -6.2878    0.5435    0.8893 H       1  UNL1        0.0234
     23 H          -6.9105   -1.1061    0.7561 H       1  UNL1        0.0234
     24 H          -4.7941   -2.0032    1.7372 H       1  UNL1        0.0342
     25 H          -4.1858   -0.3619    1.9509 H       1  UNL1        0.0342
     26 H          -2.3004   -2.6978   -0.7860 H       1  UNL1        0.0654
     27 H           2.3017   -1.5322   -0.9355 H       1  UNL1        0.0476
     28 H           1.6830   -0.9301   -2.4933 H       1  UNL1        0.0476
     29 H           4.1469   -0.6746   -2.3565 H       1  UNL1        0.0442
     30 H           3.3278    0.8561   -2.5557 H       1  UNL1        0.0442
     31 H           5.2884   -1.1662   -0.4119 H       1  UNL1        0.0424
     32 H           3.9257   -1.0338    0.6923 H       1  UNL1        0.0424
     33 H           5.1734    0.6765    2.0156 H       1  UNL1        0.0242
     34 H           6.1612   -0.7660    1.7817 H       1  UNL1        0.0242
     35 H           6.4759    0.6762    0.8068 H       1  UNL1        0.0242
     36 H           3.0804    2.3765   -0.6221 H       1  UNL1        0.0442
     37 H           3.6954    1.9258    0.9416 H       1  UNL1        0.0442
     38 H           1.9692    0.1348    1.1550 H       1  UNL1        0.0476
     39 H           1.2467    1.7053    0.7951 H       1  UNL1        0.0476
     40 H          -0.7127    1.9632   -0.2587 H       1  UNL1        0.0640
     41 H          -2.9358    2.7524   -0.1657 H       1  UNL1        0.0278
     42 H          -3.5614    1.8387    1.2186 H       1  UNL1        0.0278
     43 H          -4.3065    1.6789   -0.3979 H       1  UNL1        0.0278
@<TRIPOS>BOND
     1     1     2    1
     2     2     3    1
     3     3     4    2
     4     3     5    1
     5     5     6   ar
     6     6     7   ar
     7     7     8    1
     8     7     9   ar
     9     9    10    1
    10    10    11    1
    11    11    12    1
    12    12    13    1
    13    13    14    1
    14    14    15    1
    15    13    16    1
    16    16    17    1
    17     9    18   ar
    18    18    19   ar
    19    19    20    1
    20    19     5   ar
    21    17    10    1
    22     1    21    1
    23     1    22    1
    24     1    23    1
    25     2    24    1
    26     2    25    1
    27     6    26    1
    28    11    27    1
    29    11    28    1
    30    12    29    1
    31    12    30    1
    32    14    31    1
    33    14    32    1
    34    15    33    1
    35    15    34    1
    36    15    35    1
    37    16    36    1
    38    16    37    1
    39    17    38    1
    40    17    39    1
    41    18    40    1
    42    20    41    1
    43    20    42    1
    44    20    43    1
