@<TRIPOS>MOLECULE
*****
 39 40 0 0 0
SMALL
GASTEIGER

@<TRIPOS>ATOM
      1 C           1.6761    3.5993    2.2136 C.3     1  UNL1       -0.0582
      2 C           1.0422    2.3154    2.7129 C.3     1  UNL1        0.0077
      3 C           0.2042    1.6649    1.6296 C.2     1  UNL1        0.1648
      4 O          -0.9654    2.0193    1.4622 O.2     1  UNL1       -0.2920
      5 C           0.7869    0.5846    0.7582 C.ar    1  UNL1        0.0422
      6 C           2.1753    0.3736    0.7431 C.ar    1  UNL1       -0.0040
      7 C           2.7256   -0.6389   -0.0386 C.ar    1  UNL1        0.1629
      8 C           1.9038   -1.4299   -0.8385 C.ar    1  UNL1        0.1639
      9 C           0.5225   -1.2352   -0.8325 C.ar    1  UNL1        0.0056
     10 C          -0.0557   -0.2276   -0.0485 C.ar    1  UNL1        0.0476
     11 N          -1.4534    0.0077   -0.0428 N.am    1  UNL1       -0.2846
     12 C          -2.4539   -0.6548   -0.7295 C.2     1  UNL1        0.2198
     13 O          -2.2998   -1.6111   -1.4815 O.2     1  UNL1       -0.2752
     14 C          -3.8395   -0.0639   -0.4469 C.3     1  UNL1        0.0303
     15 C          -4.2558   -0.3380    0.9974 C.3     1  UNL1       -0.0544
     16 C          -4.8840   -0.6222   -1.4120 C.3     1  UNL1       -0.0544
     17 O           2.3843   -2.4220   -1.6544 O.3     1  UNL1       -0.4849
     18 C           3.7963   -2.2995   -1.8561 C.3     1  UNL1        0.1237
     19 C           4.5023   -2.0423   -0.5355 C.3     1  UNL1        0.1237
     20 O           4.0870   -0.7903    0.0256 O.3     1  UNL1       -0.4849
     21 H           2.3523    3.4119    1.3737 H       1  UNL1        0.0234
     22 H           2.2486    4.0779    3.0140 H       1  UNL1        0.0234
     23 H           0.9122    4.3052    1.8707 H       1  UNL1        0.0234
     24 H           1.7905    1.6223    3.1074 H       1  UNL1        0.0342
     25 H           0.3754    2.5343    3.5560 H       1  UNL1        0.0342
     26 H           2.8582    0.9806    1.3283 H       1  UNL1        0.0663
     27 H          -0.0763   -1.8801   -1.4679 H       1  UNL1        0.0674
     28 H          -1.7426    0.8114    0.5213 H       1  UNL1        0.1548
     29 H          -3.7790    1.0205   -0.6050 H       1  UNL1        0.0389
     30 H          -5.2551    0.0625    1.1982 H       1  UNL1        0.0237
     31 H          -3.5649    0.1242    1.7099 H       1  UNL1        0.0237
     32 H          -4.2698   -1.4136    1.2059 H       1  UNL1        0.0237
     33 H          -4.5939   -0.4334   -2.4514 H       1  UNL1        0.0237
     34 H          -5.0027   -1.7048   -1.2918 H       1  UNL1        0.0237
     35 H          -5.8593   -0.1532   -1.2444 H       1  UNL1        0.0237
     36 H           4.1512   -3.2348   -2.3001 H       1  UNL1        0.0731
     37 H           3.9776   -1.4894   -2.5733 H       1  UNL1        0.0731
     38 H           5.5851   -1.9945   -0.6875 H       1  UNL1        0.0731
     39 H           4.2935   -2.8357    0.1928 H       1  UNL1        0.0731
@<TRIPOS>BOND
     1     1     2    1
     2     2     3    1
     3     3     4    2
     4     3     5    1
     5     5     6   ar
     6     6     7   ar
     7     7     8   ar
     8     8     9   ar
     9     9    10   ar
    10    10    11    1
    11    11    12   am
    12    12    13    2
    13    12    14    1
    14    14    15    1
    15    14    16    1
    16     8    17    1
    17    17    18    1
    18    18    19    1
    19    19    20    1
    20    10     5   ar
    21    20     7    1
    22     1    21    1
    23     1    22    1
    24     1    23    1
    25     2    24    1
    26     2    25    1
    27     6    26    1
    28     9    27    1
    29    11    28    1
    30    14    29    1
    31    15    30    1
    32    15    31    1
    33    15    32    1
    34    16    33    1
    35    16    34    1
    36    16    35    1
    37    18    36    1
    38    18    37    1
    39    19    38    1
    40    19    39    1
