@<TRIPOS>MOLECULE
*****
 41 42 0 0 0
SMALL
GASTEIGER

@<TRIPOS>ATOM
      1 C          -3.8515    3.3589   -0.4216 C.3     1  UNL1       -0.0582
      2 C          -4.3608    2.1626   -1.2019 C.3     1  UNL1        0.0076
      3 C          -4.1422    0.8825   -0.4207 C.2     1  UNL1        0.1630
      4 O          -4.9908    0.4843    0.3756 O.2     1  UNL1       -0.2921
      5 C          -2.8748    0.1064   -0.5800 C.ar    1  UNL1        0.0211
      6 C          -1.7914    0.5759   -1.3325 C.ar    1  UNL1       -0.0476
      7 C          -0.6216   -0.1851   -1.4254 C.ar    1  UNL1       -0.0156
      8 C          -0.5298   -1.4032   -0.7499 C.ar    1  UNL1        0.1626
      9 O           0.6443   -2.0955   -0.8998 O.3     1  UNL1       -0.4807
     10 C           1.3739   -2.1688    0.3337 C.3     1  UNL1        0.1471
     11 C           2.7290   -1.6245    0.0472 C.ar    1  UNL1        0.1433
     12 C           3.8056   -2.0881   -0.6829 C.ar    1  UNL1       -0.0164
     13 C           4.8020   -1.0808   -0.6131 C.ar    1  UNL1       -0.0089
     14 C           4.2825   -0.0596    0.1667 C.ar    1  UNL1        0.2117
     15 C           4.8530    1.2050    0.5703 C.2     1  UNL1        0.3746
     16 O           5.9545    1.6231    0.2383 O.2     1  UNL1       -0.2415
     17 O           3.9891    1.8722    1.3865 O.3     1  UNL1       -0.4623
     18 C           4.4684    3.1349    1.8664 C.3     1  UNL1        0.0821
     19 O           3.0175   -0.4000    0.5744 O.2     1  UNL1       -0.4497
     20 C          -1.6095   -1.9035   -0.0091 C.ar    1  UNL1        0.1622
     21 O          -1.4242   -3.1229    0.5856 O.3     1  UNL1       -0.4914
     22 C          -2.5244   -3.6690    1.2964 C.3     1  UNL1        0.0790
     23 C          -2.7764   -1.1356    0.0732 C.ar    1  UNL1       -0.0058
     24 H          -2.7714    3.2842   -0.2387 H       1  UNL1        0.0234
     25 H          -4.0391    4.2846   -0.9728 H       1  UNL1        0.0234
     26 H          -4.3522    3.4340    0.5499 H       1  UNL1        0.0234
     27 H          -5.4408    2.2642   -1.3674 H       1  UNL1        0.0342
     28 H          -3.9111    2.1023   -2.1955 H       1  UNL1        0.0342
     29 H          -1.8176    1.5301   -1.8445 H       1  UNL1        0.0626
     30 H           0.2284    0.1747   -2.0055 H       1  UNL1        0.0655
     31 H           0.9101   -1.6049    1.1533 H       1  UNL1        0.0779
     32 H           1.4476   -3.2208    0.6358 H       1  UNL1        0.0779
     33 H           3.8530   -3.0297   -1.2183 H       1  UNL1        0.0653
     34 H           5.7850   -1.0869   -1.0773 H       1  UNL1        0.0658
     35 H           5.3563    3.0020    2.4870 H       1  UNL1        0.0661
     36 H           4.6752    3.8100    1.0283 H       1  UNL1        0.0661
     37 H           3.6741    3.5791    2.4854 H       1  UNL1        0.0661
     38 H          -2.2290   -4.6579    1.6631 H       1  UNL1        0.0660
     39 H          -2.7696   -3.0539    2.1628 H       1  UNL1        0.0660
     40 H          -3.3907   -3.8013    0.6435 H       1  UNL1        0.0660
     41 H          -3.6307   -1.4791    0.6428 H       1  UNL1        0.0662
@<TRIPOS>BOND
     1     1     2    1
     2     2     3    1
     3     3     4    2
     4     3     5    1
     5     5     6   ar
     6     6     7   ar
     7     7     8   ar
     8     8     9    1
     9     9    10    1
    10    10    11    1
    11    11    12   ar
    12    12    13   ar
    13    13    14   ar
    14    14    15    1
    15    15    16    2
    16    15    17    1
    17    17    18    1
    18    14    19   ar
    19     8    20   ar
    20    20    21    1
    21    21    22    1
    22    20    23   ar
    23    23     5   ar
    24    19    11   ar
    25     1    24    1
    26     1    25    1
    27     1    26    1
    28     2    27    1
    29     2    28    1
    30     6    29    1
    31     7    30    1
    32    10    31    1
    33    10    32    1
    34    12    33    1
    35    13    34    1
    36    18    35    1
    37    18    36    1
    38    18    37    1
    39    22    38    1
    40    22    39    1
    41    22    40    1
    42    23    41    1
