@<TRIPOS>MOLECULE
*****
 45 47 0 0 0
SMALL
GASTEIGER

@<TRIPOS>ATOM
      1 C           5.7689    2.2679    1.6228 C.3     1  UNL1       -0.0582
      2 C           4.5543    1.9416    0.7646 C.3     1  UNL1        0.0077
      3 C           4.3690    0.4452    0.5442 C.2     1  UNL1        0.1649
      4 O           5.2060   -0.3668    0.9426 O.2     1  UNL1       -0.2920
      5 C           3.1668    0.0081   -0.1674 C.ar    1  UNL1        0.0426
      6 C           2.1801    0.8380   -0.6743 C.ar    1  UNL1        0.0167
      7 N           1.2075    0.0597   -1.2538 N.ar    1  UNL1       -0.3371
      8 C          -0.0115    0.5961   -1.8339 C.3     1  UNL1        0.0995
      9 C          -1.0018    0.9566   -0.7456 C.2     1  UNL1        0.2329
     10 O          -1.0663    2.0898   -0.2735 O.2     1  UNL1       -0.2739
     11 N          -1.8086   -0.0898   -0.3280 N.am    1  UNL1       -0.3114
     12 C          -2.6339    0.0470    0.8609 C.3     1  UNL1        0.0379
     13 C          -3.8078    1.0347    0.7485 C.3     1  UNL1        0.0742
     14 C          -4.7887    0.7108   -0.3800 C.3     1  UNL1       -0.0231
     15 C          -5.8487   -0.1024    0.3185 C.3     1  UNL1       -0.0271
     16 C          -5.9067    0.5704    1.6716 C.3     1  UNL1        0.0482
     17 O          -4.5631    0.9579    1.9796 O.3     1  UNL1       -0.3750
     18 C           1.5501   -1.2749   -1.1731 C.ar    1  UNL1        0.0502
     19 C           0.8990   -2.4349   -1.6404 C.ar    1  UNL1       -0.0376
     20 C           1.4916   -3.6761   -1.3850 C.ar    1  UNL1       -0.0598
     21 C           2.6930   -3.7638   -0.6867 C.ar    1  UNL1       -0.0611
     22 C           3.3385   -2.6062   -0.2367 C.ar    1  UNL1       -0.0519
     23 C           2.7679   -1.3354   -0.4802 C.ar    1  UNL1        0.0103
     24 H           6.6869    1.8829    1.1673 H       1  UNL1        0.0234
     25 H           5.8700    3.3535    1.7333 H       1  UNL1        0.0234
     26 H           5.6767    1.8274    2.6211 H       1  UNL1        0.0234
     27 H           3.6578    2.3393    1.2556 H       1  UNL1        0.0342
     28 H           4.6670    2.4256   -0.2130 H       1  UNL1        0.0342
     29 H           2.0745    1.9175   -0.6531 H       1  UNL1        0.0816
     30 H           0.2496    1.4918   -2.4094 H       1  UNL1        0.0588
     31 H          -0.4400   -0.1304   -2.5270 H       1  UNL1        0.0588
     32 H          -1.4659   -1.0234   -0.5190 H       1  UNL1        0.1488
     33 H          -1.9831    0.3526    1.6914 H       1  UNL1        0.0487
     34 H          -3.0017   -0.9548    1.1129 H       1  UNL1        0.0487
     35 H          -3.4348    2.0643    0.6429 H       1  UNL1        0.0611
     36 H          -4.3452    0.1976   -1.2395 H       1  UNL1        0.0291
     37 H          -5.2288    1.6469   -0.7462 H       1  UNL1        0.0291
     38 H          -5.5122   -1.1414    0.4260 H       1  UNL1        0.0288
     39 H          -6.8142   -0.1079   -0.2001 H       1  UNL1        0.0288
     40 H          -6.5206    1.4783    1.6446 H       1  UNL1        0.0560
     41 H          -6.2894   -0.0906    2.4554 H       1  UNL1        0.0560
     42 H          -0.0311   -2.3906   -2.1939 H       1  UNL1        0.0638
     43 H           1.0067   -4.5908   -1.7437 H       1  UNL1        0.0618
     44 H           3.1409   -4.7354   -0.4940 H       1  UNL1        0.0618
     45 H           4.2812   -2.6858    0.2980 H       1  UNL1        0.0624
@<TRIPOS>BOND
     1     1     2    1
     2     2     3    1
     3     3     4    2
     4     3     5    1
     5     5     6   ar
     6     6     7   ar
     7     7     8    1
     8     8     9    1
     9     9    10    2
    10     9    11   am
    11    11    12    1
    12    12    13    1
    13    13    14    1
    14    14    15    1
    15    15    16    1
    16    16    17    1
    17     7    18   ar
    18    18    19   ar
    19    19    20   ar
    20    20    21   ar
    21    21    22   ar
    22    22    23   ar
    23    23     5   ar
    24    17    13    1
    25    23    18   ar
    26     1    24    1
    27     1    25    1
    28     1    26    1
    29     2    27    1
    30     2    28    1
    31     6    29    1
    32     8    30    1
    33     8    31    1
    34    11    32    1
    35    12    33    1
    36    12    34    1
    37    13    35    1
    38    14    36    1
    39    14    37    1
    40    15    38    1
    41    15    39    1
    42    16    40    1
    43    16    41    1
    44    19    42    1
    45    20    43    1
    46    21    44    1
    47    22    45    1
