@<TRIPOS>MOLECULE
*****
 38 40 0 0 0
SMALL
GASTEIGER

@<TRIPOS>ATOM
      1 C          -4.6718   -1.6837    0.7099 C.3     1  UNL1       -0.0570
      2 C          -3.7271   -0.6004    0.2204 C.3     1  UNL1        0.0215
      3 C          -2.2660   -1.0150    0.3085 C.2     1  UNL1        0.2180
      4 O          -1.9187   -2.0862    0.7910 O.2     1  UNL1       -0.2754
      5 N          -1.4333   -0.0280   -0.1951 N.am    1  UNL1       -0.2711
      6 C          -0.0379   -0.0266   -0.2770 C.ar    1  UNL1        0.1173
      7 C           0.5760    1.1911   -0.2826 C.ar    1  UNL1        0.0743
      8 C          -0.1407    2.4327   -0.2460 C.ar    1  UNL1        0.0263
      9 C          -0.1983    3.3717    0.7707 C.ar    1  UNL1       -0.0467
     10 C          -1.0179    4.4917    0.4488 C.ar    1  UNL1       -0.0541
     11 C          -1.5562    4.3888   -0.8127 C.ar    1  UNL1       -0.0237
     12 S          -1.0718    2.9538   -1.6022 S.2     1  UNL1       -0.0964
     13 C           2.0684    1.2631   -0.2479 C.ar    1  UNL1        0.1994
     14 O           2.6737    2.3290   -0.3353 O.2     1  UNL1       -0.2864
     15 C           2.8144    0.0077   -0.0620 C.ar    1  UNL1        0.0459
     16 C           4.2016    0.0556    0.1489 C.ar    1  UNL1       -0.0489
     17 C           4.9180   -1.1226    0.3312 C.ar    1  UNL1       -0.0610
     18 C           4.2482   -2.3407    0.3069 C.ar    1  UNL1       -0.0598
     19 C           2.8656   -2.3801    0.0891 C.ar    1  UNL1       -0.0374
     20 C           2.1186   -1.2054   -0.1159 C.ar    1  UNL1        0.0538
     21 N           0.7192   -1.2115   -0.3450 N.ar    1  UNL1       -0.3309
     22 C           0.2140   -2.4325   -0.9894 C.3     1  UNL1        0.0136
     23 H          -5.7107   -1.3506    0.6244 H       1  UNL1        0.0234
     24 H          -4.5565   -2.6004    0.1223 H       1  UNL1        0.0234
     25 H          -4.4773   -1.9307    1.7588 H       1  UNL1        0.0234
     26 H          -3.9588   -0.3607   -0.8236 H       1  UNL1        0.0356
     27 H          -3.8681    0.3045    0.8223 H       1  UNL1        0.0356
     28 H          -1.8824    0.8727   -0.3225 H       1  UNL1        0.1562
     29 H           0.3364    3.2608    1.7075 H       1  UNL1        0.0629
     30 H          -1.1901    5.3361    1.1053 H       1  UNL1        0.0623
     31 H          -2.2011    5.0962   -1.3163 H       1  UNL1        0.0693
     32 H           4.7199    1.0120    0.1741 H       1  UNL1        0.0625
     33 H           5.9914   -1.0891    0.4992 H       1  UNL1        0.0618
     34 H           4.7975   -3.2662    0.4637 H       1  UNL1        0.0618
     35 H           2.3823   -3.3535    0.1058 H       1  UNL1        0.0638
     36 H           0.0829   -3.2374   -0.2586 H       1  UNL1        0.0456
     37 H          -0.7402   -2.2670   -1.5011 H       1  UNL1        0.0456
     38 H           0.8969   -2.7791   -1.7756 H       1  UNL1        0.0456
@<TRIPOS>BOND
     1     1     2    1
     2     2     3    1
     3     3     4    2
     4     3     5   am
     5     5     6    1
     6     6     7   ar
     7     7     8    1
     8     8     9   ar
     9     9    10   ar
    10    10    11   ar
    11    11    12   ar
    12     7    13   ar
    13    13    14    2
    14    13    15   ar
    15    15    16   ar
    16    16    17   ar
    17    17    18   ar
    18    18    19   ar
    19    19    20   ar
    20    20    21   ar
    21    21    22    1
    22    21     6   ar
    23    12     8   ar
    24    20    15   ar
    25     1    23    1
    26     1    24    1
    27     1    25    1
    28     2    26    1
    29     2    27    1
    30     5    28    1
    31     9    29    1
    32    10    30    1
    33    11    31    1
    34    16    32    1
    35    17    33    1
    36    18    34    1
    37    19    35    1
    38    22    36    1
    39    22    37    1
    40    22    38    1
