@<TRIPOS>MOLECULE
*****
 36 37 0 0 0
SMALL
GASTEIGER

@<TRIPOS>ATOM
      1 C          -4.4000   -2.9149    0.1781 C.3     1  UNL1       -0.0570
      2 C          -3.1311   -2.3538   -0.4391 C.3     1  UNL1        0.0215
      3 C          -2.7460   -1.0022    0.1422 C.2     1  UNL1        0.2170
      4 O          -3.4030   -0.4545    1.0185 O.2     1  UNL1       -0.2755
      5 N          -1.5901   -0.5160   -0.4414 N.am    1  UNL1       -0.2845
      6 C          -0.9206    0.7061   -0.1890 C.ar    1  UNL1        0.0480
      7 C          -1.3862    1.6586    0.7250 C.ar    1  UNL1       -0.0254
      8 C          -0.6812    2.8549    0.9294 C.ar    1  UNL1        0.0606
      9 C          -1.1417    3.8897    1.8881 C.2     1  UNL1        0.3369
     10 O          -0.5806    4.9464    2.1131 O.2     1  UNL1       -0.2451
     11 O          -2.2788    3.5538    2.5180 O.3     1  UNL1       -0.4771
     12 C           0.4955    3.1028    0.2151 C.ar    1  UNL1       -0.0466
     13 C           0.9700    2.1620   -0.6977 C.ar    1  UNL1       -0.0454
     14 C           0.2745    0.9623   -0.9001 C.ar    1  UNL1        0.0339
     15 S           0.9258   -0.2214   -2.0875 S.3     1  UNL1       -0.0876
     16 C           2.4442   -0.7177   -1.2899 C.ar    1  UNL1        0.0128
     17 C           3.6464   -0.6301   -1.9997 C.ar    1  UNL1       -0.0480
     18 C           4.8477   -1.0206   -1.4040 C.ar    1  UNL1       -0.0607
     19 C           4.8529   -1.5069   -0.0979 C.ar    1  UNL1       -0.0617
     20 C           3.6578   -1.6069    0.6123 C.ar    1  UNL1       -0.0607
     21 C           2.4557   -1.2174    0.0173 C.ar    1  UNL1       -0.0480
     22 H          -4.6431   -3.8850   -0.2660 H       1  UNL1        0.0234
     23 H          -5.2478   -2.2414    0.0145 H       1  UNL1        0.0234
     24 H          -4.2843   -3.0525    1.2583 H       1  UNL1        0.0234
     25 H          -3.2720   -2.2401   -1.5199 H       1  UNL1        0.0356
     26 H          -2.3044   -3.0531   -0.2701 H       1  UNL1        0.0356
     27 H          -1.1483   -1.0969   -1.1481 H       1  UNL1        0.1548
     28 H          -2.2997    1.4924    1.2874 H       1  UNL1        0.0644
     29 H          -2.4657    4.3120    3.1092 H       1  UNL1        0.2954
     30 H           1.0462    4.0296    0.3669 H       1  UNL1        0.0626
     31 H           1.8863    2.3721   -1.2452 H       1  UNL1        0.0629
     32 H           3.6593   -0.2558   -3.0208 H       1  UNL1        0.0629
     33 H           5.7788   -0.9465   -1.9602 H       1  UNL1        0.0618
     34 H           5.7882   -1.8107    0.3658 H       1  UNL1        0.0618
     35 H           3.6608   -1.9895    1.6300 H       1  UNL1        0.0618
     36 H           1.5345   -1.3090    0.5873 H       1  UNL1        0.0629
@<TRIPOS>BOND
     1     1     2    1
     2     2     3    1
     3     3     4    2
     4     3     5   am
     5     5     6    1
     6     6     7   ar
     7     7     8   ar
     8     8     9    1
     9     9    10    2
    10     9    11    1
    11     8    12   ar
    12    12    13   ar
    13    13    14   ar
    14    14    15    1
    15    15    16    1
    16    16    17   ar
    17    17    18   ar
    18    18    19   ar
    19    19    20   ar
    20    20    21   ar
    21    14     6   ar
    22    21    16   ar
    23     1    22    1
    24     1    23    1
    25     1    24    1
    26     2    25    1
    27     2    26    1
    28     5    27    1
    29     7    28    1
    30    11    29    1
    31    12    30    1
    32    13    31    1
    33    17    32    1
    34    18    33    1
    35    19    34    1
    36    20    35    1
    37    21    36    1
