@<TRIPOS>MOLECULE
*****
 30 32 0 0 0
SMALL
GASTEIGER

@<TRIPOS>ATOM
      1 C           6.0123    0.2122    0.3650 C.3     1  UNL1       -0.0570
      2 C           4.6392    0.8502    0.4827 C.3     1  UNL1        0.0215
      3 C           3.5111   -0.1236    0.1751 C.2     1  UNL1        0.2184
      4 O           3.7274   -1.2902   -0.1286 O.2     1  UNL1       -0.2754
      5 N           2.2837    0.4921    0.2910 N.am    1  UNL1       -0.2647
      6 C           1.0494   -0.0673    0.0857 C.ar    1  UNL1        0.1653
      7 N          -0.0446    0.6469    0.2421 N.ar    1  UNL1       -0.2241
      8 C          -1.1316   -0.1518   -0.0343 C.ar    1  UNL1        0.0901
      9 C          -0.8550   -1.4478   -0.3815 C.ar    1  UNL1        0.0561
     10 S           0.8253   -1.6983   -0.3771 S.2     1  UNL1       -0.0530
     11 C          -1.8701   -2.4845   -0.6677 C.3     1  UNL1        0.1228
     12 O          -3.1539   -1.9022   -1.0006 O.3     1  UNL1       -0.4861
     13 C          -3.4684   -0.6716   -0.4742 C.ar    1  UNL1        0.1302
     14 C          -4.8178   -0.3201   -0.4890 C.ar    1  UNL1       -0.0193
     15 C          -5.2192    0.9263   -0.0039 C.ar    1  UNL1       -0.0583
     16 C          -4.2715    1.8279    0.4848 C.ar    1  UNL1       -0.0609
     17 C          -2.9174    1.4881    0.4872 C.ar    1  UNL1       -0.0490
     18 C          -2.5152    0.2397    0.0067 C.ar    1  UNL1        0.0430
     19 H           6.1166   -0.6275    1.0600 H       1  UNL1        0.0234
     20 H           6.1841   -0.1670   -0.6478 H       1  UNL1        0.0234
     21 H           6.7933    0.9440    0.5932 H       1  UNL1        0.0234
     22 H           4.5019    1.2309    1.5012 H       1  UNL1        0.0356
     23 H           4.5700    1.6938   -0.2136 H       1  UNL1        0.0356
     24 H           2.2338    1.4658    0.5551 H       1  UNL1        0.1567
     25 H          -1.5720   -3.1067   -1.5179 H       1  UNL1        0.0754
     26 H          -2.0148   -3.1367    0.2007 H       1  UNL1        0.0754
     27 H          -5.5564   -1.0157   -0.8779 H       1  UNL1        0.0654
     28 H          -6.2722    1.1969   -0.0122 H       1  UNL1        0.0619
     29 H          -4.5872    2.7991    0.8578 H       1  UNL1        0.0618
     30 H          -2.1811    2.1969    0.8583 H       1  UNL1        0.0625
@<TRIPOS>BOND
     1     1     2    1
     2     2     3    1
     3     3     4    2
     4     3     5   am
     5     5     6    1
     6     6     7   ar
     7     7     8   ar
     8     8     9   ar
     9     9    10   ar
    10     9    11    1
    11    11    12    1
    12    12    13    1
    13    13    14   ar
    14    14    15   ar
    15    15    16   ar
    16    16    17   ar
    17    17    18   ar
    18    10     6   ar
    19    18    13   ar
    20    18     8    1
    21     1    19    1
    22     1    20    1
    23     1    21    1
    24     2    22    1
    25     2    23    1
    26     5    24    1
    27    11    25    1
    28    11    26    1
    29    14    27    1
    30    15    28    1
    31    16    29    1
    32    17    30    1
