@<TRIPOS>MOLECULE
*****
 41 42 0 0 0
SMALL
GASTEIGER

@<TRIPOS>ATOM
      1 C           5.3586    0.4719   -2.7627 C.3     1  UNL1       -0.0570
      2 C           4.1402    0.1211   -3.5971 C.3     1  UNL1        0.0215
      3 C           3.0335   -0.4785   -2.7469 C.2     1  UNL1        0.2173
      4 O           2.7793   -1.6748   -2.8222 O.2     1  UNL1       -0.2755
      5 N           2.4201    0.4710   -1.9447 N.am    1  UNL1       -0.2790
      6 C           1.3889    0.2595   -1.0369 C.ar    1  UNL1        0.0898
      7 S           0.7455   -1.2918   -0.7605 S.2     1  UNL1       -0.0750
      8 C          -0.3810   -0.7194    0.3753 C.ar    1  UNL1        0.0155
      9 C          -0.2568    0.6415    0.5737 C.ar    1  UNL1       -0.0145
     10 C           0.7653    1.2101   -0.2470 C.ar    1  UNL1        0.0837
     11 C           1.1252    2.5959   -0.2606 C.1     1  UNL1        0.1019
     12 N           1.4425    3.7113   -0.2995 N.1     1  UNL1       -0.1908
     13 C          -1.1331    1.3104    1.5872 C.3     1  UNL1       -0.0077
     14 C          -2.5456    0.6403    1.6653 C.3     1  UNL1        0.0183
     15 C          -3.5014    1.4206    0.7320 C.3     1  UNL1       -0.0467
     16 C          -3.0863    0.7684    3.1007 C.3     1  UNL1       -0.0467
     17 N          -2.6480   -0.7968    1.2848 N.3     1  UNL1       -0.3015
     18 C          -1.3885   -1.5677    1.1256 C.3     1  UNL1        0.0457
     19 C          -0.8353   -1.9629    2.5061 C.3     1  UNL1       -0.0424
     20 C          -1.7675   -2.8591    0.3721 C.3     1  UNL1       -0.0424
     21 H           5.7273   -0.4059   -2.2217 H       1  UNL1        0.0234
     22 H           6.1639    0.8441   -3.4034 H       1  UNL1        0.0234
     23 H           5.1290    1.2456   -2.0231 H       1  UNL1        0.0234
     24 H           3.7580    1.0092   -4.1129 H       1  UNL1        0.0356
     25 H           4.4134   -0.6060   -4.3702 H       1  UNL1        0.0356
     26 H           2.7485    1.4256   -2.0375 H       1  UNL1        0.1553
     27 H          -1.2255    2.3813    1.3708 H       1  UNL1        0.0331
     28 H          -0.6234    1.2319    2.5567 H       1  UNL1        0.0331
     29 H          -4.5225    1.0228    0.7772 H       1  UNL1        0.0247
     30 H          -3.1682    1.3705   -0.3113 H       1  UNL1        0.0247
     31 H          -3.5545    2.4787    1.0140 H       1  UNL1        0.0247
     32 H          -3.1058    1.8168    3.4203 H       1  UNL1        0.0247
     33 H          -2.4669    0.2169    3.8163 H       1  UNL1        0.0247
     34 H          -4.1093    0.3818    3.1815 H       1  UNL1        0.0247
     35 H          -3.1573   -0.8662    0.4030 H       1  UNL1        0.1233
     36 H          -0.5386   -1.0963    3.1058 H       1  UNL1        0.0251
     37 H          -1.5760   -2.5278    3.0844 H       1  UNL1        0.0251
     38 H           0.0549   -2.5955    2.4044 H       1  UNL1        0.0251
     39 H          -0.9139   -3.5414    0.2818 H       1  UNL1        0.0251
     40 H          -2.5577   -3.4084    0.8991 H       1  UNL1        0.0251
     41 H          -2.1311   -2.6489   -0.6413 H       1  UNL1        0.0251
@<TRIPOS>BOND
     1     1     2    1
     2     2     3    1
     3     3     4    2
     4     3     5   am
     5     5     6    1
     6     6     7   ar
     7     7     8   ar
     8     8     9   ar
     9     9    10   ar
    10    10    11    1
    11    11    12    3
    12     9    13    1
    13    13    14    1
    14    14    15    1
    15    14    16    1
    16    14    17    1
    17    17    18    1
    18    18    19    1
    19    18    20    1
    20    10     6   ar
    21    18     8    1
    22     1    21    1
    23     1    22    1
    24     1    23    1
    25     2    24    1
    26     2    25    1
    27     5    26    1
    28    13    27    1
    29    13    28    1
    30    15    29    1
    31    15    30    1
    32    15    31    1
    33    16    32    1
    34    16    33    1
    35    16    34    1
    36    17    35    1
    37    19    36    1
    38    19    37    1
    39    19    38    1
    40    20    39    1
    41    20    40    1
    42    20    41    1
