@<TRIPOS>MOLECULE
*****
 43 44 0 0 0
SMALL
GASTEIGER

@<TRIPOS>ATOM
      1 C          -3.7949    3.4627    0.5007 C.3     1  UNL1       -0.0643
      2 C          -2.3252    3.3030    0.1316 C.3     1  UNL1       -0.0407
      3 C          -1.8023    1.8639    0.3191 C.3     1  UNL1        0.0606
      4 C          -0.2668    1.8093    0.1752 C.2     1  UNL1        0.2247
      5 O           0.3956    2.8005   -0.1182 O.2     1  UNL1       -0.2748
      6 N           0.2466    0.5514    0.4400 N.am    1  UNL1       -0.2820
      7 C           1.5942    0.1293    0.4345 C.ar    1  UNL1        0.0772
      8 C           2.6734    0.9857    0.2259 C.ar    1  UNL1       -0.0150
      9 C           3.9774    0.4819    0.2377 C.ar    1  UNL1        0.0845
     10 CL          5.2770    1.5954   -0.0276 Cl      1  UNL1       -0.0797
     11 C           4.2245   -0.8825    0.4596 C.ar    1  UNL1        0.1419
     12 O           5.5375   -1.2780    0.4551 O.3     1  UNL1       -0.4935
     13 C           5.8229   -2.6557    0.6515 C.3     1  UNL1        0.0789
     14 C           3.1392   -1.7408    0.6723 C.ar    1  UNL1        0.0251
     15 C           1.8293   -1.2441    0.6590 C.ar    1  UNL1        0.1447
     16 O           0.6986   -2.0039    0.8617 O.3     1  UNL1       -0.4931
     17 C           0.8661   -3.4126    0.9635 C.3     1  UNL1        0.0789
     18 C          -2.4890    0.8771   -0.6167 C.ar    1  UNL1       -0.0355
     19 C          -2.2749    0.9241   -2.0029 C.ar    1  UNL1       -0.0578
     20 C          -2.9019    0.0078   -2.8480 C.ar    1  UNL1       -0.0615
     21 C          -3.7505   -0.9627   -2.3199 C.ar    1  UNL1       -0.0617
     22 C          -3.9747   -1.0178   -0.9459 C.ar    1  UNL1       -0.0615
     23 C          -3.3485   -0.1035   -0.0974 C.ar    1  UNL1       -0.0578
     24 H          -4.0872    4.5152    0.4273 H       1  UNL1        0.0230
     25 H          -4.4432    2.8914   -0.1703 H       1  UNL1        0.0230
     26 H          -3.9801    3.1316    1.5275 H       1  UNL1        0.0230
     27 H          -2.1746    3.6416   -0.9009 H       1  UNL1        0.0273
     28 H          -1.7434    3.9841    0.7658 H       1  UNL1        0.0273
     29 H          -2.0054    1.5729    1.3600 H       1  UNL1        0.0443
     30 H          -0.4165   -0.2052    0.5897 H       1  UNL1        0.1549
     31 H           2.5291    2.0472    0.0547 H       1  UNL1        0.0653
     32 H           6.9086   -2.7829    0.6014 H       1  UNL1        0.0660
     33 H           5.4944   -2.9889    1.6413 H       1  UNL1        0.0660
     34 H           5.3795   -3.2679   -0.1407 H       1  UNL1        0.0660
     35 H           3.3134   -2.7929    0.8533 H       1  UNL1        0.0692
     36 H          -0.1280   -3.8607    1.0551 H       1  UNL1        0.0660
     37 H           1.4336   -3.6761    1.8618 H       1  UNL1        0.0660
     38 H           1.3342   -3.8227    0.0625 H       1  UNL1        0.0660
     39 H          -1.6145    1.6742   -2.4356 H       1  UNL1        0.0620
     40 H          -2.7279    0.0531   -3.9202 H       1  UNL1        0.0618
     41 H          -4.2400   -1.6735   -2.9804 H       1  UNL1        0.0618
     42 H          -4.6418   -1.7714   -0.5355 H       1  UNL1        0.0618
     43 H          -3.5436   -0.1596    0.9714 H       1  UNL1        0.0620
@<TRIPOS>BOND
     1     1     2    1
     2     2     3    1
     3     3     4    1
     4     4     5    2
     5     4     6   am
     6     6     7    1
     7     7     8   ar
     8     8     9   ar
     9     9    10    1
    10     9    11   ar
    11    11    12    1
    12    12    13    1
    13    11    14   ar
    14    14    15   ar
    15    15    16    1
    16    16    17    1
    17     3    18    1
    18    18    19   ar
    19    19    20   ar
    20    20    21   ar
    21    21    22   ar
    22    22    23   ar
    23    15     7   ar
    24    23    18   ar
    25     1    24    1
    26     1    25    1
    27     1    26    1
    28     2    27    1
    29     2    28    1
    30     3    29    1
    31     6    30    1
    32     8    31    1
    33    13    32    1
    34    13    33    1
    35    13    34    1
    36    14    35    1
    37    17    36    1
    38    17    37    1
    39    17    38    1
    40    19    39    1
    41    20    40    1
    42    21    41    1
    43    22    42    1
    44    23    43    1
