@<TRIPOS>MOLECULE
*****
 32 33 0 0 0
SMALL
GASTEIGER

@<TRIPOS>ATOM
      1 C           0.3232   -3.1410   -0.2339 C.3     1  UNL1       -0.0641
      2 C          -0.5501   -2.0223    0.3338 C.3     1  UNL1       -0.0415
      3 C          -0.4123   -0.6255   -0.3650 C.3     1  UNL1        0.0301
      4 C          -0.9163   -0.7541   -1.8287 C.3     1  UNL1       -0.0505
      5 C           1.0706   -0.1779   -0.3384 C.ar    1  UNL1        0.0012
      6 C           1.9317    0.0838   -1.3926 C.ar    1  UNL1       -0.0500
      7 C           3.2346    0.4755   -0.9648 C.ar    1  UNL1       -0.0441
      8 C           3.3442    0.5087    0.4082 C.ar    1  UNL1        0.0516
      9 C           4.5050    0.8600    1.1976 C.2     1  UNL1        0.1567
     10 O           4.5750    0.8939    2.4240 O.2     1  UNL1       -0.2952
     11 S           1.8842    0.0665    1.1672 S.2     1  UNL1       -0.0897
     12 C          -1.3023    0.4583    0.3028 C.ar    1  UNL1        0.0012
     13 C          -1.1369    1.8364    0.2640 C.ar    1  UNL1       -0.0500
     14 C          -2.1493    2.5429    0.9755 C.ar    1  UNL1       -0.0441
     15 C          -3.0877    1.6935    1.5193 C.ar    1  UNL1        0.0516
     16 C          -4.2545    2.0421    2.3006 C.2     1  UNL1        0.1567
     17 O          -5.0926    1.2655    2.7533 O.2     1  UNL1       -0.2952
     18 S          -2.7407    0.0641    1.1635 S.2     1  UNL1       -0.0897
     19 H           0.0851   -3.3493   -1.2803 H       1  UNL1        0.0230
     20 H           1.3891   -2.9098   -0.1583 H       1  UNL1        0.0230
     21 H           0.1486   -4.0640    0.3293 H       1  UNL1        0.0230
     22 H          -1.5887   -2.3715    0.2659 H       1  UNL1        0.0275
     23 H          -0.3321   -1.9331    1.4064 H       1  UNL1        0.0275
     24 H          -0.3116   -1.4514   -2.4179 H       1  UNL1        0.0242
     25 H          -1.9533   -1.1096   -1.8602 H       1  UNL1        0.0242
     26 H          -0.8923    0.2117   -2.3494 H       1  UNL1        0.0242
     27 H           1.6498   -0.0002   -2.4354 H       1  UNL1        0.0626
     28 H           4.0458    0.7198   -1.6409 H       1  UNL1        0.0630
     29 H           5.3983    1.1199    0.6033 H       1  UNL1        0.1087
     30 H          -0.3118    2.3213   -0.2452 H       1  UNL1        0.0626
     31 H          -2.1806    3.6217    1.0732 H       1  UNL1        0.0630
     32 H          -4.3720    3.1243    2.4861 H       1  UNL1        0.1087
@<TRIPOS>BOND
     1     1     2    1
     2     2     3    1
     3     3     4    1
     4     3     5    1
     5     5     6   ar
     6     6     7   ar
     7     7     8   ar
     8     8     9    1
     9     9    10    2
    10     8    11   ar
    11     3    12    1
    12    12    13   ar
    13    13    14   ar
    14    14    15   ar
    15    15    16    1
    16    16    17    2
    17    15    18   ar
    18    11     5   ar
    19    18    12   ar
    20     1    19    1
    21     1    20    1
    22     1    21    1
    23     2    22    1
    24     2    23    1
    25     4    24    1
    26     4    25    1
    27     4    26    1
    28     6    27    1
    29     7    28    1
    30     9    29    1
    31    13    30    1
    32    14    31    1
    33    16    32    1
