@<TRIPOS>MOLECULE
*****
 50 56 0 0 0
SMALL
GASTEIGER

@<TRIPOS>ATOM
      1 SI          5.8805    0.1266    1.1636 Si      1  UNL1        0.0000
      2 C           7.2657    1.1997    0.4976 C.2     1  UNL1        0.0000
      3 C           6.7989    2.0719   -0.4134 C.2     1  UNL1        0.0000
      4 C           5.3689    1.9900   -0.6709 C.2     1  UNL1        0.0000
      5 C           4.6971    1.0381    0.0168 C.2     1  UNL1        0.0000
      6 C           3.2586    0.7869   -0.0445 C.ar    1  UNL1        0.0000
      7 C           2.6681   -0.4433    0.2139 C.ar    1  UNL1        0.0000
      8 C           1.2567   -0.6320    0.1419 C.ar    1  UNL1        0.0000
      9 C           0.6492   -1.9160    0.1650 C.ar    1  UNL1        0.0000
     10 C           1.4105   -3.1182    0.2645 C.ar    1  UNL1        0.0000
     11 C           0.8676   -4.3803    0.0444 C.ar    1  UNL1        0.0000
     12 C          -0.4510   -4.4749   -0.3304 C.ar    1  UNL1        0.0000
     13 C          -1.2242   -3.3150   -0.3801 C.ar    1  UNL1        0.0000
     14 C          -0.7507   -2.0180   -0.0261 C.ar    1  UNL1        0.0000
     15 C          -1.6139   -0.8462    0.0746 C.ar    1  UNL1        0.0000
     16 C          -3.0629   -0.9129    0.2045 C.ar    1  UNL1        0.0000
     17 C          -3.7615   -2.0813    0.6278 C.ar    1  UNL1        0.0000
     18 C          -5.1494   -2.2181    0.6052 C.ar    1  UNL1        0.0000
     19 C          -5.9154   -1.1565    0.1879 C.ar    1  UNL1        0.0000
     20 C          -5.2843    0.0496   -0.1017 C.ar    1  UNL1        0.0000
     21 C          -3.8703    0.2255   -0.0316 C.ar    1  UNL1        0.0000
     22 C          -3.2601    1.5081   -0.0794 C.ar    1  UNL1        0.0000
     23 C          -4.0176    2.7096   -0.2122 C.ar    1  UNL1        0.0000
     24 C          -3.4753    3.9755   -0.0138 C.ar    1  UNL1        0.0000
     25 C          -2.1612    4.0761    0.3742 C.ar    1  UNL1        0.0000
     26 C          -1.3902    2.9165    0.4570 C.ar    1  UNL1        0.0000
     27 C          -1.8633    1.6131    0.1227 C.ar    1  UNL1        0.0000
     28 C          -1.0059    0.4379    0.0427 C.ar    1  UNL1        0.0000
     29 C           0.4444    0.4983   -0.0713 C.ar    1  UNL1        0.0000
     30 C           1.1680    1.6431   -0.4632 C.ar    1  UNL1        0.0000
     31 N           2.5107    1.8223   -0.4426 N.ar    1  UNL1        0.0000
     32 H           5.6127    0.3758    2.6016 H       1  UNL1        0.0000
     33 H           6.0351   -1.3031    0.7912 H       1  UNL1        0.0000
     34 H           8.2846    1.0952    0.8348 H       1  UNL1        0.0000
     35 H           7.4154    2.7962   -0.9314 H       1  UNL1        0.0000
     36 H           4.8967    2.6677   -1.3738 H       1  UNL1        0.0000
     37 H           3.3203   -1.2822    0.4177 H       1  UNL1        0.0000
     38 H           2.4750   -3.0995    0.4777 H       1  UNL1        0.0000
     39 H           1.4915   -5.2672    0.1063 H       1  UNL1        0.0000
     40 H          -0.8865   -5.4356   -0.5898 H       1  UNL1        0.0000
     41 H          -2.2362   -3.4429   -0.7595 H       1  UNL1        0.0000
     42 H          -3.2137   -2.9260    1.0409 H       1  UNL1        0.0000
     43 H          -5.6142   -3.1486    0.9178 H       1  UNL1        0.0000
     44 H          -6.9977   -1.2355    0.1456 H       1  UNL1        0.0000
     45 H          -5.9447    0.8765   -0.3446 H       1  UNL1        0.0000
     46 H          -5.0796    2.6853   -0.4371 H       1  UNL1        0.0000
     47 H          -4.0973    4.8614   -0.1022 H       1  UNL1        0.0000
     48 H          -1.7270    5.0417    0.6181 H       1  UNL1        0.0000
     49 H          -0.3846    3.0557    0.8490 H       1  UNL1        0.0000
     50 H           0.6627    2.5093   -0.8827 H       1  UNL1        0.0000
@<TRIPOS>BOND
     1     1     2    1
     2     2     3    2
     3     3     4    1
     4     4     5    2
     5     5     6    1
     6     6     7   ar
     7     7     8   ar
     8     8     9   ar
     9     9    10   ar
    10    10    11   ar
    11    11    12   ar
    12    12    13   ar
    13    13    14   ar
    14    14    15   ar
    15    15    16   ar
    16    16    17   ar
    17    17    18   ar
    18    18    19   ar
    19    19    20   ar
    20    20    21   ar
    21    21    22   ar
    22    22    23   ar
    23    23    24   ar
    24    24    25   ar
    25    25    26   ar
    26    26    27   ar
    27    27    28   ar
    28    28    29   ar
    29    29    30   ar
    30    30    31   ar
    31     5     1    1
    32    31     6   ar
    33    29     8   ar
    34    14     9   ar
    35    28    15   ar
    36    21    16   ar
    37    27    22   ar
    38     1    32    1
    39     1    33    1
    40     2    34    1
    41     3    35    1
    42     4    36    1
    43     7    37    1
    44    10    38    1
    45    11    39    1
    46    12    40    1
    47    13    41    1
    48    17    42    1
    49    18    43    1
    50    19    44    1
    51    20    45    1
    52    23    46    1
    53    24    47    1
    54    25    48    1
    55    26    49    1
    56    30    50    1
