@<TRIPOS>MOLECULE
*****
 39 39 0 0 0
SMALL
GASTEIGER

@<TRIPOS>ATOM
      1 CD1        -3.8933   -0.1216    1.7125 C.3     1  ILE1       -0.0650
      2 CG1        -3.1370    0.9355    0.9232 C.3     1  ILE1       -0.0511
      3 CB         -3.0146    0.7117   -0.6006 C.3     1  ILE1       -0.0152
      4 CG2        -4.3779    0.7654   -1.2981 C.3     1  ILE1       -0.0602
      5 CA         -2.1746   -0.5147   -1.0326 C.3     1  ILE1        0.1240
      6 N          -0.8210   -0.4544   -0.4657 N.am    1  ILE1       -0.2860
      7 C           0.1600    0.2898   -1.0598 C.2     0  UNK0        0.3005
      8 O          -0.0158    1.0214   -2.0230 O.2     0  UNK0       -0.2528
      9 N           1.3631    0.1105   -0.4339 N.am    0  UNK0       -0.2953
     10 C           2.4995    0.9020   -0.8435 C.3     0  UNK0        0.0383
     11 C           3.7344    0.4889   -0.0892 C.ar    0  UNK0       -0.0303
     12 C           4.4297   -0.6735   -0.4524 C.ar    0  UNK0       -0.0571
     13 C           5.5623   -1.0728    0.2585 C.ar    0  UNK0       -0.0615
     14 C           6.0071   -0.3182    1.3425 C.ar    0  UNK0       -0.0617
     15 C           5.3190    0.8342    1.7182 C.ar    0  UNK0       -0.0615
     16 C           4.1857    1.2352    1.0084 C.ar    0  UNK0       -0.0571
     17 C          -2.8036   -1.8806   -0.7179 C.2     1  ILE1        0.3256
     18 O          -3.9188   -2.2699   -1.0232 O.2     1  ILE1       -0.2489
     19 OXT        -1.9685   -2.7153   -0.0492 O.3     1  ILE1       -0.4793
     20 HD11       -4.0172    0.2118    2.7486 H       1  ILE1        0.0230
     21 HD12       -3.3478   -1.0672    1.7461 H       1  ILE1        0.0230
     22 HD13       -4.8912   -0.3021    1.3045 H       1  ILE1        0.0230
     23 HG11       -2.1363    1.0454    1.3586 H       1  ILE1        0.0266
     24 HG12       -3.6378    1.8988    1.0869 H       1  ILE1        0.0266
     25 HB         -2.4709    1.5945   -0.9690 H       1  ILE1        0.0321
     26 HG21       -5.0544   -0.0248   -0.9636 H       1  ILE1        0.0233
     27 HG22       -4.2608    0.6738   -2.3832 H       1  ILE1        0.0233
     28 HG23       -4.8703    1.7238   -1.1000 H       1  ILE1        0.0233
     29 HA         -2.0580   -0.5012   -2.1248 H       1  ILE1        0.0617
     30 H          -0.5037   -1.3201   -0.0432 H       1  ILE1        0.1511
     31 H           1.2992   -0.1003    0.5509 H       0  UNK0        0.1506
     32 H           2.6512    0.7857   -1.9233 H       0  UNK0        0.0512
     33 H           2.2664    1.9588   -0.6657 H       0  UNK0        0.0512
     34 H           4.0872   -1.2734   -1.2933 H       0  UNK0        0.0621
     35 H           6.0969   -1.9730   -0.0333 H       0  UNK0        0.0618
     36 H           6.8899   -0.6289    1.8951 H       0  UNK0        0.0618
     37 H           5.6657    1.4215    2.5647 H       0  UNK0        0.0618
     38 H           3.6586    2.1358    1.3159 H       0  UNK0        0.0621
     39 HXT        -2.5026   -3.5326    0.0536 H       1  ILE1        0.2951
@<TRIPOS>BOND
     1     1     2    1
     2     2     3    1
     3     3     4    1
     4     3     5    1
     5     5     6    1
     6     6     7   am
     7     7     8    2
     8     7     9   am
     9     9    10    1
    10    10    11    1
    11    11    12   ar
    12    12    13   ar
    13    13    14   ar
    14    14    15   ar
    15    15    16   ar
    16     5    17    1
    17    17    18    2
    18    17    19    1
    19    16    11   ar
    20     1    20    1
    21     1    21    1
    22     1    22    1
    23     2    23    1
    24     2    24    1
    25     3    25    1
    26     4    26    1
    27     4    27    1
    28     4    28    1
    29     5    29    1
    30     6    30    1
    31     9    31    1
    32    10    32    1
    33    10    33    1
    34    12    34    1
    35    13    35    1
    36    14    36    1
    37    15    37    1
    38    16    38    1
    39    19    39    1
