@<TRIPOS>MOLECULE
*****
 33 33 0 0 0
SMALL
GASTEIGER

@<TRIPOS>ATOM
      1 C           4.1881    0.7433    0.0466 C.3     1  UNL1       -0.0636
      2 C           2.6979    0.7432   -0.2600 C.3     1  UNL1       -0.0376
      3 C           1.9990   -0.5834    0.0816 C.3     1  UNL1        0.0204
      4 C           2.5253   -1.7553   -0.7439 C.3     1  UNL1       -0.0466
      5 N           0.5617   -0.4547   -0.1292 N.am    1  UNL1       -0.3087
      6 C          -0.2657    0.0917    0.8240 C.2     1  UNL1        0.2478
      7 O           0.0753    0.4317    1.9482 O.2     1  UNL1       -0.2701
      8 C          -1.6695    0.2436    0.3511 C.ar    1  UNL1        0.0776
      9 C          -2.6159   -0.8539    0.4453 C.ar    1  UNL1       -0.0284
     10 C          -2.1760   -2.1430    1.0782 C.3     1  UNL1       -0.0387
     11 C          -3.8658   -0.6838   -0.0116 C.ar    1  UNL1        0.0266
     12 C          -4.3058    0.5876   -0.6111 C.ar    1  UNL1        0.3372
     13 O          -5.4474    0.7107   -1.0386 O.2     1  UNL1       -0.2452
     14 O          -3.3836    1.5931   -0.6658 O.2     1  UNL1       -0.4267
     15 C          -2.0578    1.4175   -0.1790 C.ar    1  UNL1        0.1184
     16 C          -1.2213    2.6517   -0.3352 C.3     1  UNL1       -0.0055
     17 H           4.3747    0.4697    1.0898 H       1  UNL1        0.0230
     18 H           4.7314    0.0468   -0.5985 H       1  UNL1        0.0230
     19 H           4.6052    1.7415   -0.1212 H       1  UNL1        0.0230
     20 H           2.2321    1.5568    0.3102 H       1  UNL1        0.0280
     21 H           2.5454    0.9863   -1.3191 H       1  UNL1        0.0280
     22 H           2.1607   -0.8050    1.1438 H       1  UNL1        0.0495
     23 H           1.9613   -2.6680   -0.5209 H       1  UNL1        0.0247
     24 H           3.5784   -1.9582   -0.5281 H       1  UNL1        0.0247
     25 H           2.4246   -1.5613   -1.8175 H       1  UNL1        0.0247
     26 H           0.1975   -0.5881   -1.0643 H       1  UNL1        0.1493
     27 H          -1.8285   -1.9752    2.1032 H       1  UNL1        0.0278
     28 H          -2.9942   -2.8702    1.1278 H       1  UNL1        0.0278
     29 H          -1.3668   -2.6038    0.5021 H       1  UNL1        0.0278
     30 H          -4.6199   -1.4600    0.0387 H       1  UNL1        0.0692
     31 H          -0.2077    2.5453    0.0591 H       1  UNL1        0.0308
     32 H          -1.6927    3.4892    0.1894 H       1  UNL1        0.0308
     33 H          -1.1400    2.9141   -1.3950 H       1  UNL1        0.0308
@<TRIPOS>BOND
     1     1     2    1
     2     2     3    1
     3     3     4    1
     4     3     5    1
     5     5     6   am
     6     6     7    2
     7     6     8    1
     8     8     9   ar
     9     9    10    1
    10     9    11   ar
    11    11    12   ar
    12    12    13    2
    13    12    14   ar
    14    14    15   ar
    15    15    16    1
    16    15     8   ar
    17     1    17    1
    18     1    18    1
    19     1    19    1
    20     2    20    1
    21     2    21    1
    22     3    22    1
    23     4    23    1
    24     4    24    1
    25     4    25    1
    26     5    26    1
    27    10    27    1
    28    10    28    1
    29    10    29    1
    30    11    30    1
    31    16    31    1
    32    16    32    1
    33    16    33    1
