@<TRIPOS>MOLECULE
*****
 42 43 0 0 0
SMALL
GASTEIGER

@<TRIPOS>ATOM
      1 C          -5.5761    1.0137    0.1768 C.3     1  UNL1       -0.0636
      2 C          -5.3964   -0.4242   -0.2935 C.3     1  UNL1       -0.0376
      3 C          -4.3845   -1.2472    0.5243 C.3     1  UNL1        0.0204
      4 C          -4.7887   -1.3895    1.9895 C.3     1  UNL1       -0.0466
      5 N          -3.0391   -0.6943    0.4305 N.am    1  UNL1       -0.3088
      6 C          -2.2463   -0.9127   -0.6791 C.2     1  UNL1        0.2443
      7 O          -2.5692   -1.6374   -1.6134 O.2     1  UNL1       -0.2702
      8 C          -0.9524   -0.1763   -0.7193 C.ar    1  UNL1        0.0367
      9 C          -0.2733    0.1977    0.4455 C.ar    1  UNL1       -0.0493
     10 C           0.9402    0.8868    0.3575 C.ar    1  UNL1       -0.0546
     11 C           1.5022    1.1925   -0.8910 C.ar    1  UNL1       -0.0104
     12 C           2.8040    1.9566   -1.0035 C.3     1  UNL1        0.1147
     13 O           3.6755    1.7436    0.1090 O.3     1  UNL1       -0.4859
     14 C           4.5913    0.7264    0.0398 C.ar    1  UNL1        0.1392
     15 C           4.4911   -0.3711   -0.8216 C.ar    1  UNL1       -0.0185
     16 C           5.4659   -1.3745   -0.8094 C.ar    1  UNL1       -0.0582
     17 C           6.5453   -1.2964    0.0674 C.ar    1  UNL1       -0.0602
     18 C           6.6494   -0.2161    0.9410 C.ar    1  UNL1       -0.0398
     19 C           5.6754    0.7868    0.9308 C.ar    1  UNL1        0.0825
     20 CL          5.8561    2.1016    2.0408 Cl      1  UNL1       -0.0798
     21 C           0.8143    0.8152   -2.0534 C.ar    1  UNL1       -0.0546
     22 C          -0.3986    0.1270   -1.9681 C.ar    1  UNL1       -0.0493
     23 H          -5.9811    1.0566    1.1920 H       1  UNL1        0.0230
     24 H          -4.6304    1.5636    0.1558 H       1  UNL1        0.0230
     25 H          -6.2795    1.5351   -0.4808 H       1  UNL1        0.0230
     26 H          -6.3716   -0.9258   -0.2661 H       1  UNL1        0.0280
     27 H          -5.0859   -0.4052   -1.3453 H       1  UNL1        0.0280
     28 H          -4.3544   -2.2537    0.0876 H       1  UNL1        0.0495
     29 H          -4.1073   -2.0733    2.5083 H       1  UNL1        0.0247
     30 H          -5.8029   -1.7915    2.0796 H       1  UNL1        0.0247
     31 H          -4.7464   -0.4324    2.5196 H       1  UNL1        0.0247
     32 H          -2.8211    0.0969    1.0209 H       1  UNL1        0.1493
     33 H          -0.6564   -0.0609    1.4284 H       1  UNL1        0.0625
     34 H           1.4557    1.1721    1.2736 H       1  UNL1        0.0622
     35 H           2.5563    3.0249   -1.0059 H       1  UNL1        0.0748
     36 H           3.3174    1.7593   -1.9532 H       1  UNL1        0.0748
     37 H           3.6551   -0.4898   -1.5032 H       1  UNL1        0.0654
     38 H           5.3748   -2.2243   -1.4825 H       1  UNL1        0.0619
     39 H           7.2997   -2.0792    0.0758 H       1  UNL1        0.0618
     40 H           7.4884   -0.1599    1.6295 H       1  UNL1        0.0633
     41 H           1.2190    1.0489   -3.0362 H       1  UNL1        0.0622
     42 H          -0.9154   -0.1697   -2.8792 H       1  UNL1        0.0625
@<TRIPOS>BOND
     1     1     2    1
     2     2     3    1
     3     3     4    1
     4     3     5    1
     5     5     6   am
     6     6     7    2
     7     6     8    1
     8     8     9   ar
     9     9    10   ar
    10    10    11   ar
    11    11    12    1
    12    12    13    1
    13    13    14    1
    14    14    15   ar
    15    15    16   ar
    16    16    17   ar
    17    17    18   ar
    18    18    19   ar
    19    19    20    1
    20    11    21   ar
    21    21    22   ar
    22    22     8   ar
    23    19    14   ar
    24     1    23    1
    25     1    24    1
    26     1    25    1
    27     2    26    1
    28     2    27    1
    29     3    28    1
    30     4    29    1
    31     4    30    1
    32     4    31    1
    33     5    32    1
    34     9    33    1
    35    10    34    1
    36    12    35    1
    37    12    36    1
    38    15    37    1
    39    16    38    1
    40    17    39    1
    41    18    40    1
    42    21    41    1
    43    22    42    1
