@<TRIPOS>MOLECULE
*****
 38 39 0 0 0
SMALL
GASTEIGER

@<TRIPOS>ATOM
      1 C           5.8422    0.2626   -0.2728 C.3     1  UNL1       -0.0636
      2 C           4.5087    0.4532    0.4345 C.3     1  UNL1       -0.0376
      3 C           3.3008   -0.0102   -0.3939 C.3     1  UNL1        0.0204
      4 C           3.3134   -1.5170   -0.6551 C.3     1  UNL1       -0.0466
      5 N           2.0725    0.3643    0.2986 N.am    1  UNL1       -0.3087
      6 C           0.8825    0.5479   -0.3817 C.2     1  UNL1        0.2451
      7 O           0.8109    0.4945   -1.6046 O.2     1  UNL1       -0.2702
      8 C          -0.2897    0.7723    0.4806 C.ar    1  UNL1        0.0471
      9 C          -0.2032    1.3760    1.7237 C.ar    1  UNL1       -0.0117
     10 S          -1.6947    1.4798    2.5297 S.2     1  UNL1       -0.1006
     11 C          -2.5193    0.7271    1.2355 C.ar    1  UNL1       -0.0063
     12 C          -1.6762    0.4411    0.1664 C.ar    1  UNL1       -0.0251
     13 C          -2.1172   -0.1904   -1.1372 C.3     1  UNL1       -0.0262
     14 C          -3.5622    0.1043   -1.5380 C.3     1  UNL1       -0.0490
     15 C          -4.6079   -0.7273   -0.7955 C.3     1  UNL1       -0.0524
     16 C          -4.4357   -0.8259    0.7202 C.3     1  UNL1       -0.0486
     17 C          -3.9983    0.4797    1.3797 C.3     1  UNL1       -0.0211
     18 H           6.0760   -0.7968   -0.4114 H       1  UNL1        0.0230
     19 H           6.6485    0.7031    0.3226 H       1  UNL1        0.0230
     20 H           5.8406    0.7498   -1.2529 H       1  UNL1        0.0230
     21 H           4.3929    1.5194    0.6690 H       1  UNL1        0.0280
     22 H           4.5308   -0.0718    1.3977 H       1  UNL1        0.0280
     23 H           3.3111    0.5092   -1.3602 H       1  UNL1        0.0495
     24 H           4.1825   -1.8134   -1.2496 H       1  UNL1        0.0247
     25 H           2.4190   -1.8287   -1.2056 H       1  UNL1        0.0247
     26 H           3.3310   -2.0795    0.2849 H       1  UNL1        0.0247
     27 H           2.0150    0.1656    1.2877 H       1  UNL1        0.1493
     28 H           0.6767    1.7783    2.2065 H       1  UNL1        0.0701
     29 H          -1.9435   -1.2721   -1.0913 H       1  UNL1        0.0314
     30 H          -1.4953    0.2000   -1.9483 H       1  UNL1        0.0314
     31 H          -3.7785    1.1730   -1.4134 H       1  UNL1        0.0268
     32 H          -3.6778   -0.1024   -2.6098 H       1  UNL1        0.0268
     33 H          -4.6213   -1.7444   -1.2072 H       1  UNL1        0.0265
     34 H          -5.5954   -0.3015   -1.0145 H       1  UNL1        0.0265
     35 H          -5.3981   -1.1363    1.1463 H       1  UNL1        0.0269
     36 H          -3.7256   -1.6283    0.9588 H       1  UNL1        0.0269
     37 H          -4.2562    0.4150    2.4448 H       1  UNL1        0.0318
     38 H          -4.5588    1.3295    0.9719 H       1  UNL1        0.0318
@<TRIPOS>BOND
     1     1     2    1
     2     2     3    1
     3     3     4    1
     4     3     5    1
     5     5     6   am
     6     6     7    2
     7     6     8    1
     8     8     9   ar
     9     9    10   ar
    10    10    11   ar
    11    11    12   ar
    12    12    13    1
    13    13    14    1
    14    14    15    1
    15    15    16    1
    16    16    17    1
    17    12     8   ar
    18    17    11    1
    19     1    18    1
    20     1    19    1
    21     1    20    1
    22     2    21    1
    23     2    22    1
    24     3    23    1
    25     4    24    1
    26     4    25    1
    27     4    26    1
    28     5    27    1
    29     9    28    1
    30    13    29    1
    31    13    30    1
    32    14    31    1
    33    14    32    1
    34    15    33    1
    35    15    34    1
    36    16    35    1
    37    16    36    1
    38    17    37    1
    39    17    38    1
