@<TRIPOS>MOLECULE
*****
 41 42 0 0 0
SMALL
GASTEIGER

@<TRIPOS>ATOM
      1 C          -3.7627   -0.5379    2.0257 C.3     1  UNL1       -0.0646
      2 C          -3.3601    0.8917    1.6927 C.3     1  UNL1       -0.0448
      3 C          -2.8963    1.1556    0.2483 C.3     1  UNL1        0.0354
      4 C          -3.8432    0.6606   -0.8587 C.3     1  UNL1       -0.0448
      5 C          -5.2001    1.3505   -0.8327 C.3     1  UNL1       -0.0646
      6 C          -1.4494    0.6920    0.0312 C.2     1  UNL1        0.2203
      7 O          -0.5303    1.5047    0.1042 O.2     1  UNL1       -0.2752
      8 N          -1.3028   -0.6646   -0.1866 N.am    1  UNL1       -0.2852
      9 C          -0.1047   -1.3721   -0.4227 C.ar    1  UNL1        0.0341
     10 C          -0.1951   -2.7682   -0.5022 C.ar    1  UNL1       -0.0404
     11 C           0.9408   -3.5448   -0.7368 C.ar    1  UNL1       -0.0593
     12 C           2.1815   -2.9307   -0.8890 C.ar    1  UNL1       -0.0495
     13 C           2.2908   -1.5374   -0.8050 C.ar    1  UNL1        0.0388
     14 C           3.6412   -0.9232   -0.9804 C.2     1  UNL1        0.2497
     15 O           4.4524   -1.5231   -1.6760 O.2     1  UNL1       -0.2698
     16 N           3.8405    0.2521   -0.2940 N.am    1  UNL1       -0.2607
     17 C           4.9750    1.0228   -0.2872 C.ar    1  UNL1        0.1646
     18 N           5.0565    2.0920    0.4720 N.ar    1  UNL1       -0.2330
     19 C           6.2859    2.6950    0.2903 C.ar    1  UNL1        0.0368
     20 C           7.1227    2.0734   -0.6100 C.ar    1  UNL1       -0.0030
     21 S           6.3412    0.6900   -1.2501 S.2     1  UNL1       -0.0605
     22 C           1.1415   -0.7614   -0.5900 C.ar    1  UNL1       -0.0284
     23 H          -4.1138   -0.5893    3.0619 H       1  UNL1        0.0230
     24 H          -4.5771   -0.8913    1.3876 H       1  UNL1        0.0230
     25 H          -2.9199   -1.2277    1.9364 H       1  UNL1        0.0230
     26 H          -4.2152    1.5433    1.9109 H       1  UNL1        0.0270
     27 H          -2.5651    1.1940    2.3864 H       1  UNL1        0.0270
     28 H          -2.8456    2.2500    0.1394 H       1  UNL1        0.0394
     29 H          -3.3785    0.8475   -1.8354 H       1  UNL1        0.0270
     30 H          -3.9969   -0.4222   -0.8011 H       1  UNL1        0.0270
     31 H          -5.8073    1.0164   -1.6801 H       1  UNL1        0.0230
     32 H          -5.7506    1.1172    0.0834 H       1  UNL1        0.0230
     33 H          -5.0903    2.4372   -0.9038 H       1  UNL1        0.0230
     34 H          -2.1396   -1.2298   -0.1362 H       1  UNL1        0.1548
     35 H          -1.1507   -3.2734   -0.3837 H       1  UNL1        0.0636
     36 H           0.8598   -4.6272   -0.8020 H       1  UNL1        0.0618
     37 H           3.0652   -3.5391   -1.0750 H       1  UNL1        0.0625
     38 H           3.1330    0.6078    0.3337 H       1  UNL1        0.1571
     39 H           6.5222    3.5951    0.8445 H       1  UNL1        0.0835
     40 H           8.1200    2.3553   -0.9141 H       1  UNL1        0.0709
     41 H           1.2252    0.3192   -0.5938 H       1  UNL1        0.0644
@<TRIPOS>BOND
     1     1     2    1
     2     2     3    1
     3     3     4    1
     4     4     5    1
     5     3     6    1
     6     6     7    2
     7     6     8   am
     8     8     9    1
     9     9    10   ar
    10    10    11   ar
    11    11    12   ar
    12    12    13   ar
    13    13    14    1
    14    14    15    2
    15    14    16   am
    16    16    17    1
    17    17    18   ar
    18    18    19   ar
    19    19    20   ar
    20    20    21   ar
    21    13    22   ar
    22    22     9   ar
    23    21    17   ar
    24     1    23    1
    25     1    24    1
    26     1    25    1
    27     2    26    1
    28     2    27    1
    29     3    28    1
    30     4    29    1
    31     4    30    1
    32     5    31    1
    33     5    32    1
    34     5    33    1
    35     8    34    1
    36    10    35    1
    37    11    36    1
    38    12    37    1
    39    16    38    1
    40    19    39    1
    41    20    40    1
    42    22    41    1
