@<TRIPOS>MOLECULE
*****
 33 34 0 0 0
SMALL
GASTEIGER

@<TRIPOS>ATOM
      1 C          -2.9082   -1.8270    0.9975 C.3     1  UNL1       -0.0646
      2 C          -3.3102   -0.3593    1.0662 C.3     1  UNL1       -0.0448
      3 C          -2.7143    0.5039   -0.0618 C.3     1  UNL1        0.0354
      4 C          -3.3279    1.9190   -0.0792 C.3     1  UNL1       -0.0448
      5 C          -4.7635    1.9496   -0.5855 C.3     1  UNL1       -0.0646
      6 C          -1.1932    0.6268    0.1111 C.2     1  UNL1        0.2217
      7 O          -0.7023    1.5071    0.8095 O.2     1  UNL1       -0.2751
      8 N          -0.5078   -0.3600   -0.5621 N.am    1  UNL1       -0.2630
      9 C           0.8517   -0.5468   -0.5968 C.ar    1  UNL1        0.1881
     10 N           1.3965   -1.5305   -1.2764 N.ar    1  UNL1       -0.1253
     11 N           2.7729   -1.5305   -1.1720 N.ar    1  UNL1       -0.1391
     12 C           3.2199   -0.5443   -0.4153 C.ar    1  UNL1        0.1402
     13 C           4.6296   -0.3558   -0.1699 C.ar    1  UNL1        0.0462
     14 C           5.6510   -1.1466   -0.6715 C.ar    1  UNL1       -0.0449
     15 C           6.9451   -0.7157   -0.2573 C.ar    1  UNL1       -0.0541
     16 C           6.8789    0.3948    0.5513 C.ar    1  UNL1       -0.0237
     17 S           5.2689    0.9069    0.8038 S.2     1  UNL1       -0.0945
     18 S           1.9658    0.4471    0.2157 S.2     1  UNL1       -0.0299
     19 H          -1.8426   -1.9628    1.2026 H       1  UNL1        0.0230
     20 H          -3.1338   -2.2523    0.0146 H       1  UNL1        0.0230
     21 H          -3.4606   -2.4010    1.7488 H       1  UNL1        0.0230
     22 H          -3.0134    0.0416    2.0433 H       1  UNL1        0.0270
     23 H          -4.4039   -0.3186    1.0268 H       1  UNL1        0.0270
     24 H          -2.9197    0.0335   -1.0323 H       1  UNL1        0.0394
     25 H          -2.7268    2.5668   -0.7303 H       1  UNL1        0.0270
     26 H          -3.2882    2.3645    0.9227 H       1  UNL1        0.0270
     27 H          -4.8389    1.4985   -1.5799 H       1  UNL1        0.0230
     28 H          -5.4425    1.4194    0.0877 H       1  UNL1        0.0230
     29 H          -5.1125    2.9849   -0.6577 H       1  UNL1        0.0230
     30 H          -1.0165   -1.0453   -1.1033 H       1  UNL1        0.1568
     31 H           5.4737   -2.0034   -1.3126 H       1  UNL1        0.0630
     32 H           7.8739   -1.1968   -0.5390 H       1  UNL1        0.0623
     33 H           7.6990    0.9325    1.0077 H       1  UNL1        0.0693
@<TRIPOS>BOND
     1     1     2    1
     2     2     3    1
     3     3     4    1
     4     4     5    1
     5     3     6    1
     6     6     7    2
     7     6     8   am
     8     8     9    1
     9     9    10   ar
    10    10    11   ar
    11    11    12   ar
    12    12    13    1
    13    13    14   ar
    14    14    15   ar
    15    15    16   ar
    16    16    17   ar
    17    12    18   ar
    18    18     9   ar
    19    17    13   ar
    20     1    19    1
    21     1    20    1
    22     1    21    1
    23     2    22    1
    24     2    23    1
    25     3    24    1
    26     4    25    1
    27     4    26    1
    28     5    27    1
    29     5    28    1
    30     5    29    1
    31     8    30    1
    32    14    31    1
    33    15    32    1
    34    16    33    1
