@<TRIPOS>MOLECULE
*****
 32 32 0 0 0
SMALL
GASTEIGER

@<TRIPOS>ATOM
      1 C          -4.1776   -0.1218   -0.8819 C.3     1  UNL1       -0.0633
      2 C          -3.1658   -1.2575   -0.7735 C.3     1  UNL1       -0.0285
      3 C          -1.7192   -0.8094   -0.5386 C.3     1  UNL1        0.1251
      4 N          -1.2714    0.0364   -1.6678 N.3     1  UNL1       -0.1762
      5 S           0.2727   -0.1865   -2.2852 S.O2    1  UNL1        0.0591
      6 O           0.3937   -1.5781   -2.6604 O.2     1  UNL1       -0.1530
      7 O           0.4973    0.8812   -3.2333 O.2     1  UNL1       -0.1530
      8 C           1.3241    0.1012   -0.8845 C.ar    1  UNL1        0.1053
      9 C           1.5809    1.4133   -0.4808 C.ar    1  UNL1       -0.0351
     10 C           2.4087    1.6442    0.6189 C.ar    1  UNL1       -0.0570
     11 C           2.9824    0.5713    1.3149 C.ar    1  UNL1       -0.0503
     12 C           3.9031    0.8265    2.4725 C.3     1  UNL1       -0.0397
     13 C           2.7419   -0.7385    0.8777 C.ar    1  UNL1       -0.0570
     14 C           1.9142   -0.9771   -0.2206 C.ar    1  UNL1       -0.0351
     15 C          -1.5838   -0.0333    0.7632 C.2     1  UNL1        0.3235
     16 O          -1.4740    1.1802    0.8646 O.2     1  UNL1       -0.2492
     17 O          -1.6004   -0.8160    1.8585 O.3     1  UNL1       -0.4795
     18 H          -5.1796   -0.5310   -1.0477 H       1  UNL1        0.0230
     19 H          -3.9480    0.5427   -1.7202 H       1  UNL1        0.0230
     20 H          -4.2104    0.4748    0.0347 H       1  UNL1        0.0230
     21 H          -3.2124   -1.8507   -1.6954 H       1  UNL1        0.0283
     22 H          -3.4776   -1.9189    0.0442 H       1  UNL1        0.0283
     23 H          -1.0887   -1.7030   -0.4704 H       1  UNL1        0.0592
     24 H          -1.5352    1.0229   -1.6143 H       1  UNL1        0.1489
     25 H           1.1425    2.2554   -1.0117 H       1  UNL1        0.0637
     26 H           2.6067    2.6687    0.9284 H       1  UNL1        0.0621
     27 H           3.8616    0.0028    3.1930 H       1  UNL1        0.0278
     28 H           4.9320    0.9337    2.1156 H       1  UNL1        0.0278
     29 H           3.6157    1.7387    3.0059 H       1  UNL1        0.0278
     30 H           3.2055   -1.5808    1.3876 H       1  UNL1        0.0621
     31 H           1.7433   -1.9992   -0.5518 H       1  UNL1        0.0637
     32 H          -1.4823   -0.1921    2.6064 H       1  UNL1        0.2951
@<TRIPOS>BOND
     1     1     2    1
     2     2     3    1
     3     3     4    1
     4     4     5    1
     5     5     6    2
     6     5     7    2
     7     5     8    1
     8     8     9   ar
     9     9    10   ar
    10    10    11   ar
    11    11    12    1
    12    11    13   ar
    13    13    14   ar
    14     3    15    1
    15    15    16    2
    16    15    17    1
    17    14     8   ar
    18     1    18    1
    19     1    19    1
    20     1    20    1
    21     2    21    1
    22     2    22    1
    23     3    23    1
    24     4    24    1
    25     9    25    1
    26    10    26    1
    27    12    27    1
    28    12    28    1
    29    12    29    1
    30    13    30    1
    31    14    31    1
    32    17    32    1
