@<TRIPOS>MOLECULE
*****
 42 44 0 0 0
SMALL
GASTEIGER

@<TRIPOS>ATOM
      1 C           0.5110    3.8061   -2.3789 C.3     1  UNL1       -0.0615
      2 C           1.4828    2.6624   -2.1221 C.3     1  UNL1       -0.0098
      3 C           0.8044    1.2930   -2.2314 C.3     1  UNL1        0.1784
      4 O          -0.1703    1.1948   -1.1802 O.3     1  UNL1       -0.4474
      5 C          -1.0732    0.1840   -1.3195 C.2     1  UNL1        0.3566
      6 O          -1.1081   -0.5890   -2.2661 O.2     1  UNL1       -0.2433
      7 C          -1.9583    0.1567   -0.1693 C.ar    1  UNL1        0.1283
      8 C          -1.9729    1.0169    0.9233 C.ar    1  UNL1       -0.0154
      9 C          -3.0152    0.5723    1.7801 C.ar    1  UNL1        0.0378
     10 S          -3.7370    0.9998    3.2944 S.2     1  UNL1       -0.0951
     11 C          -4.8340   -0.3148    3.1370 C.ar    1  UNL1       -0.0217
     12 C          -4.6680   -1.0550    1.9856 C.ar    1  UNL1       -0.0305
     13 C          -3.6014   -0.5175    1.2113 C.ar    1  UNL1        0.0566
     14 N          -2.9617   -0.7776    0.0184 N.ar    1  UNL1       -0.3374
     15 C          -3.3126   -1.8676   -0.8616 C.3     1  UNL1        0.0126
     16 C           1.8718    0.1947   -2.0980 C.2     1  UNL1        0.2542
     17 O           2.4322   -0.3073   -3.0682 O.2     1  UNL1       -0.2717
     18 N           2.1984   -0.1170   -0.7963 N.am    1  UNL1       -0.3052
     19 C           3.0579   -1.2383   -0.5057 C.3     1  UNL1        0.0698
     20 C           3.3281   -1.2583    0.9512 C.ar    1  UNL1        0.1218
     21 C           4.4819   -1.1990    1.7048 C.ar    1  UNL1       -0.0192
     22 C           4.0774   -1.2557    3.0606 C.ar    1  UNL1       -0.0236
     23 C           2.7055   -1.3442    3.0490 C.ar    1  UNL1        0.0921
     24 O           2.2398   -1.3453    1.7738 O.2     1  UNL1       -0.4662
     25 H          -0.2967    3.8164   -1.6404 H       1  UNL1        0.0231
     26 H           1.0340    4.7658   -2.3186 H       1  UNL1        0.0231
     27 H           0.0657    3.7245   -3.3755 H       1  UNL1        0.0231
     28 H           1.9096    2.7924   -1.1197 H       1  UNL1        0.0303
     29 H           2.3117    2.7278   -2.8369 H       1  UNL1        0.0303
     30 H           0.3167    1.1951   -3.2095 H       1  UNL1        0.0832
     31 H          -1.3173    1.8617    1.0897 H       1  UNL1        0.0652
     32 H          -5.5626   -0.4794    3.9191 H       1  UNL1        0.0694
     33 H          -5.2706   -1.9155    1.7262 H       1  UNL1        0.0644
     34 H          -2.4432   -2.5212   -0.9680 H       1  UNL1        0.0456
     35 H          -3.6114   -1.4515   -1.8269 H       1  UNL1        0.0456
     36 H          -4.1439   -2.4384   -0.4416 H       1  UNL1        0.0456
     37 H           1.5502    0.1645   -0.0687 H       1  UNL1        0.1492
     38 H           3.9818   -1.1424   -1.0854 H       1  UNL1        0.0542
     39 H           2.5480   -2.1557   -0.8178 H       1  UNL1        0.0542
     40 H           5.4899   -1.1222    1.3210 H       1  UNL1        0.0652
     41 H           4.7071   -1.2339    3.9389 H       1  UNL1        0.0649
     42 H           1.9521   -1.4104    3.8218 H       1  UNL1        0.1029
@<TRIPOS>BOND
     1     1     2    1
     2     2     3    1
     3     3     4    1
     4     4     5    1
     5     5     6    2
     6     5     7    1
     7     7     8   ar
     8     8     9   ar
     9     9    10   ar
    10    10    11   ar
    11    11    12   ar
    12    12    13   ar
    13    13    14   ar
    14    14    15    1
    15     3    16    1
    16    16    17    2
    17    16    18   am
    18    18    19    1
    19    19    20    1
    20    20    21   ar
    21    21    22   ar
    22    22    23   ar
    23    23    24   ar
    24    14     7   ar
    25    24    20   ar
    26    13     9   ar
    27     1    25    1
    28     1    26    1
    29     1    27    1
    30     2    28    1
    31     2    29    1
    32     3    30    1
    33     8    31    1
    34    11    32    1
    35    12    33    1
    36    15    34    1
    37    15    35    1
    38    15    36    1
    39    18    37    1
    40    19    38    1
    41    19    39    1
    42    21    40    1
    43    22    41    1
    44    23    42    1
