@<TRIPOS>MOLECULE
*****
 39 40 0 0 0
SMALL
GASTEIGER

@<TRIPOS>ATOM
      1 C           0.4725   -4.5131   -1.9113 C.3     1  UNL1       -0.0638
      2 C           0.0100   -3.1162   -2.3098 C.3     1  UNL1       -0.0351
      3 C           0.1931   -2.0567   -1.2036 C.3     1  UNL1        0.0889
      4 S           1.9762   -1.7572   -0.8862 S.3     1  UNL1       -0.0733
      5 C           1.9077   -0.6940    0.5318 C.ar    1  UNL1        0.1894
      6 N           2.9816    0.0855    0.7240 N.ar    1  UNL1       -0.2271
      7 C           2.9620    0.9088    1.7886 C.ar    1  UNL1        0.0428
      8 C           4.1578    1.7882    1.9977 C.3     1  UNL1       -0.0222
      9 C           1.8934    0.9593    2.6588 C.ar    1  UNL1       -0.0195
     10 C           0.8354    0.1119    2.3922 C.ar    1  UNL1        0.0428
     11 C          -0.3660    0.1220    3.2952 C.3     1  UNL1       -0.0222
     12 N           0.8227   -0.7243    1.3302 N.ar    1  UNL1       -0.2271
     13 C          -0.4721   -0.7439   -1.6503 C.2     1  UNL1        0.2316
     14 O          -0.4169   -0.3513   -2.8152 O.2     1  UNL1       -0.2742
     15 N          -1.1280   -0.0961   -0.6243 N.am    1  UNL1       -0.2695
     16 C          -1.8908    1.0691   -0.6688 C.ar    1  UNL1        0.1250
     17 C          -2.1550    1.7825   -1.8341 C.ar    1  UNL1       -0.0201
     18 C          -2.9517    2.9282   -1.7588 C.ar    1  UNL1       -0.0387
     19 C          -3.4817    3.3099   -0.5339 C.ar    1  UNL1        0.0592
     20 CL         -4.4911    4.6897   -0.4029 Cl      1  UNL1       -0.0820
     21 C          -3.1830    2.5355    0.5742 C.ar    1  UNL1        0.0480
     22 N          -2.3904    1.4353    0.5369 N.ar    1  UNL1       -0.2387
     23 H           0.1926   -5.2338   -2.6872 H       1  UNL1        0.0230
     24 H           0.0065   -4.8296   -0.9705 H       1  UNL1        0.0230
     25 H           1.5596   -4.5636   -1.7941 H       1  UNL1        0.0230
     26 H           0.5189   -2.8143   -3.2375 H       1  UNL1        0.0278
     27 H          -1.0586   -3.1754   -2.5605 H       1  UNL1        0.0278
     28 H          -0.2878   -2.4321   -0.2902 H       1  UNL1        0.0511
     29 H           4.6023    1.5930    2.9792 H       1  UNL1        0.0293
     30 H           4.9203    1.5982    1.2353 H       1  UNL1        0.0293
     31 H           3.8682    2.8406    1.9350 H       1  UNL1        0.0293
     32 H           1.8855    1.6301    3.5062 H       1  UNL1        0.0653
     33 H          -0.8748    1.0950    3.2335 H       1  UNL1        0.0293
     34 H          -0.0541   -0.0561    4.3345 H       1  UNL1        0.0293
     35 H          -1.0785   -0.6602    3.0137 H       1  UNL1        0.0293
     36 H          -0.9586   -0.4117    0.3274 H       1  UNL1        0.1563
     37 H          -1.7706    1.4784   -2.8020 H       1  UNL1        0.0652
     38 H          -3.1621    3.4964   -2.6636 H       1  UNL1        0.0634
     39 H          -3.5947    2.7720    1.5526 H       1  UNL1        0.0845
@<TRIPOS>BOND
     1     1     2    1
     2     2     3    1
     3     3     4    1
     4     4     5    1
     5     5     6   ar
     6     6     7   ar
     7     7     8    1
     8     7     9   ar
     9     9    10   ar
    10    10    11    1
    11    10    12   ar
    12     3    13    1
    13    13    14    2
    14    13    15   am
    15    15    16    1
    16    16    17   ar
    17    17    18   ar
    18    18    19   ar
    19    19    20    1
    20    19    21   ar
    21    21    22   ar
    22    12     5   ar
    23    22    16   ar
    24     1    23    1
    25     1    24    1
    26     1    25    1
    27     2    26    1
    28     2    27    1
    29     3    28    1
    30     8    29    1
    31     8    30    1
    32     8    31    1
    33     9    32    1
    34    11    33    1
    35    11    34    1
    36    11    35    1
    37    15    36    1
    38    17    37    1
    39    18    38    1
    40    21    39    1
