@<TRIPOS>MOLECULE
*****
 35 37 0 0 0
SMALL
GASTEIGER

@<TRIPOS>ATOM
      1 C           4.2691    0.3300   -1.0126 C.3     1  UNL1       -0.0646
      2 C           3.0702    1.0172   -0.3675 C.3     1  UNL1       -0.0463
      3 C           1.9735    0.0740    0.1952 C.3     1  UNL1        0.0147
      4 C           2.5886   -0.9336    1.1868 C.3     1  UNL1       -0.0554
      5 C           0.9321    0.9378    0.9316 C.3     1  UNL1        0.0592
      6 O          -0.2149    0.1716    1.2753 O.3     1  UNL1       -0.3371
      7 C          -0.8300   -0.4240    0.1357 C.3     1  UNL1        0.2780
      8 O          -0.0981   -0.2584   -1.0709 O.3     1  UNL1       -0.3371
      9 C           1.2510   -0.6980   -0.9297 C.3     1  UNL1        0.0592
     10 C          -1.2565   -1.9283    0.4478 C.2     1  UNL1        0.2821
     11 O          -0.5275   -2.8844    0.6752 O.2     1  UNL1       -0.2691
     12 N          -2.6475   -1.9872    0.4161 N.am    1  UNL1       -0.2803
     13 C          -3.1956   -0.7490    0.1248 C.ar    1  UNL1        0.0423
     14 C          -4.5376   -0.4480    0.0115 C.ar    1  UNL1       -0.0400
     15 C          -4.8781    0.8712   -0.2963 C.ar    1  UNL1       -0.0600
     16 C          -3.8816    1.8457   -0.4826 C.ar    1  UNL1       -0.0612
     17 C          -2.5279    1.5166   -0.3624 C.ar    1  UNL1       -0.0512
     18 C          -2.1940    0.2061   -0.0539 C.ar    1  UNL1        0.0418
     19 H           4.9366    1.0819   -1.4467 H       1  UNL1        0.0230
     20 H           3.9705   -0.3510   -1.8139 H       1  UNL1        0.0230
     21 H           4.8502   -0.2338   -0.2770 H       1  UNL1        0.0230
     22 H           2.6193    1.6900   -1.1088 H       1  UNL1        0.0269
     23 H           3.4459    1.6598    0.4396 H       1  UNL1        0.0269
     24 H           3.1617   -0.4187    1.9659 H       1  UNL1        0.0236
     25 H           1.8155   -1.5279    1.6862 H       1  UNL1        0.0236
     26 H           3.2598   -1.6378    0.6838 H       1  UNL1        0.0236
     27 H           0.6183    1.7988    0.3275 H       1  UNL1        0.0567
     28 H           1.3505    1.3435    1.8599 H       1  UNL1        0.0567
     29 H           1.7271   -0.5286   -1.9003 H       1  UNL1        0.0567
     30 H           1.2672   -1.7822   -0.7750 H       1  UNL1        0.0567
     31 H          -3.1615   -2.8376    0.5862 H       1  UNL1        0.1550
     32 H          -5.3053   -1.1999    0.1534 H       1  UNL1        0.0636
     33 H          -5.9249    1.1499   -0.3949 H       1  UNL1        0.0618
     34 H          -4.1679    2.8671   -0.7240 H       1  UNL1        0.0618
     35 H          -1.7585    2.2674   -0.5099 H       1  UNL1        0.0623
@<TRIPOS>BOND
     1     1     2    1
     2     2     3    1
     3     3     4    1
     4     3     5    1
     5     5     6    1
     6     6     7    1
     7     7     8    1
     8     8     9    1
     9     7    10    1
    10    10    11    2
    11    10    12   am
    12    12    13    1
    13    13    14   ar
    14    14    15   ar
    15    15    16   ar
    16    16    17   ar
    17    17    18   ar
    18     9     3    1
    19    18    13   ar
    20    18     7    1
    21     1    19    1
    22     1    20    1
    23     1    21    1
    24     2    22    1
    25     2    23    1
    26     4    24    1
    27     4    25    1
    28     4    26    1
    29     5    27    1
    30     5    28    1
    31     9    29    1
    32     9    30    1
    33    12    31    1
    34    14    32    1
    35    15    33    1
    36    16    34    1
    37    17    35    1
