@<TRIPOS>MOLECULE
*****
 44 50 0 0 0
SMALL
GASTEIGER

@<TRIPOS>ATOM
      1 SI         -5.2042    0.4301   -1.7893 Si      1  UNL1        0.0000
      2 C          -6.7265    0.8845   -0.7757 C.2     1  UNL1        0.0000
      3 C          -6.4461    0.9255    0.5399 C.2     1  UNL1        0.0000
      4 C          -5.0668    0.6239    0.8903 C.2     1  UNL1        0.0000
      5 C          -4.2651    0.3271   -0.1523 C.2     1  UNL1        0.0000
      6 C          -2.8500    0.0298   -0.0919 C.ar    1  UNL1        0.0000
      7 C          -1.8539    1.0131   -0.0983 C.ar    1  UNL1        0.0000
      8 C          -0.4379    0.7147   -0.0336 C.ar    1  UNL1        0.0000
      9 C           0.5483    1.7127   -0.1129 C.ar    1  UNL1        0.0000
     10 C           0.3367    3.0590   -0.2877 C.ar    1  UNL1        0.0000
     11 O           1.5265    3.7147   -0.3342 O.2     1  UNL1        0.0000
     12 C           2.5069    2.7790   -0.1860 C.ar    1  UNL1        0.0000
     13 C           1.9633    1.5229   -0.0514 C.ar    1  UNL1        0.0000
     14 C           2.6335    0.2835    0.1568 C.ar    1  UNL1        0.0000
     15 C           4.0338    0.0195    0.2643 C.ar    1  UNL1        0.0000
     16 SI          5.5515    1.1251    0.0622 Si      1  UNL1        0.0000
     17 C           6.6545   -0.3273    0.4442 C.2     1  UNL1        0.0000
     18 C           5.9575   -1.4501    0.6819 C.2     1  UNL1        0.0000
     19 C           4.4988   -1.2767    0.5840 C.ar    1  UNL1        0.0000
     20 C           3.5958   -2.2918    0.8194 C.ar    1  UNL1        0.0000
     21 C           2.2242   -2.0353    0.6890 C.ar    1  UNL1        0.0000
     22 C           1.6708   -0.7897    0.2961 C.ar    1  UNL1        0.0000
     23 C           0.1869   -0.5954    0.1022 C.ar    1  UNL1        0.0000
     24 C          -0.8821   -1.5691    0.0040 C.ar    1  UNL1        0.0000
     25 C          -0.6955   -2.9220   -0.1880 C.ar    1  UNL1        0.0000
     26 S          -2.1596   -3.8160   -0.2075 S.2     1  UNL1        0.0000
     27 C          -3.0973   -2.3928   -0.1029 C.ar    1  UNL1        0.0000
     28 C          -2.3110   -1.2619   -0.0648 C.ar    1  UNL1        0.0000
     29 H          -4.7511    1.5565   -2.6432 H       1  UNL1        0.0000
     30 H          -5.3580   -0.8905   -2.4491 H       1  UNL1        0.0000
     31 H          -7.6790    1.0755   -1.2442 H       1  UNL1        0.0000
     32 H          -7.1744    1.1657    1.3050 H       1  UNL1        0.0000
     33 H          -4.7395    0.6490    1.9231 H       1  UNL1        0.0000
     34 H          -2.1748    2.0525   -0.1581 H       1  UNL1        0.0000
     35 H          -0.5344    3.6894   -0.3961 H       1  UNL1        0.0000
     36 H           3.5006    3.1968   -0.1951 H       1  UNL1        0.0000
     37 H           5.7181    1.6140   -1.3289 H       1  UNL1        0.0000
     38 H           5.6272    2.1828    1.1006 H       1  UNL1        0.0000
     39 H           7.7288   -0.2280    0.4627 H       1  UNL1        0.0000
     40 H           6.4006   -2.4069    0.9252 H       1  UNL1        0.0000
     41 H           3.9323   -3.2808    1.1178 H       1  UNL1        0.0000
     42 H           1.5767   -2.8563    0.9775 H       1  UNL1        0.0000
     43 H           0.2099   -3.4843   -0.3448 H       1  UNL1        0.0000
     44 H          -4.1758   -2.4722   -0.1103 H       1  UNL1        0.0000
@<TRIPOS>BOND
     1     1     2    1
     2     2     3    2
     3     3     4    1
     4     4     5    2
     5     5     6    1
     6     6     7   ar
     7     7     8   ar
     8     8     9   ar
     9     9    10   ar
    10    10    11   ar
    11    11    12   ar
    12    12    13   ar
    13    13    14   ar
    14    14    15   ar
    15    15    16    1
    16    16    17    1
    17    17    18    2
    18    18    19    1
    19    19    20   ar
    20    20    21   ar
    21    21    22   ar
    22    22    23   ar
    23    23    24   ar
    24    24    25   ar
    25    25    26   ar
    26    26    27   ar
    27    27    28   ar
    28     5     1    1
    29    28     6   ar
    30    23     8   ar
    31    28    24   ar
    32    13     9   ar
    33    22    14   ar
    34    19    15   ar
    35     1    29    1
    36     1    30    1
    37     2    31    1
    38     3    32    1
    39     4    33    1
    40     7    34    1
    41    10    35    1
    42    12    36    1
    43    16    37    1
    44    16    38    1
    45    17    39    1
    46    18    40    1
    47    20    41    1
    48    21    42    1
    49    25    43    1
    50    27    44    1
