@<TRIPOS>MOLECULE
*****
 43 44 0 0 0
SMALL
GASTEIGER

@<TRIPOS>ATOM
      1 C           3.9829   -0.0393    1.3778 C.3     1  UNL1       -0.0638
      2 C           2.9341   -0.7127    0.4992 C.3     1  UNL1       -0.0309
      3 C           2.0857    0.2375   -0.3963 C.3     1  UNL1        0.1470
      4 C           1.3594    1.3207    0.4395 C.3     1  UNL1       -0.0309
      5 C           0.4456    2.2299   -0.3798 C.3     1  UNL1       -0.0638
      6 C           3.0240    0.9001   -1.3932 C.2     1  UNL1        0.2398
      7 O           3.6110    1.9600   -1.1884 O.2     1  UNL1       -0.2741
      8 N           3.2159    0.2158   -2.5466 N.am    1  UNL1       -0.2155
      9 C           2.1079   -0.2573   -3.1743 C.2     1  UNL1        0.4397
     10 O           2.0147   -0.1280   -4.3908 O.2     1  UNL1       -0.2192
     11 N           1.1321   -0.8391   -2.4209 N.am    1  UNL1        0.0403
     12 C           1.0739   -0.6585   -1.1377 C.2     1  UNL1        0.2979
     13 N           0.1042   -1.3010   -0.3934 N.pl3   1  UNL1       -0.2376
     14 C          -0.9828   -2.0828   -0.9658 C.3     1  UNL1        0.0817
     15 C          -2.2463   -1.2348   -1.1558 C.3     1  UNL1        0.0084
     16 C          -2.8288   -0.7008    0.1361 C.ar    1  UNL1       -0.0436
     17 C          -2.9794    0.6811    0.3252 C.ar    1  UNL1       -0.0550
     18 C          -3.5074    1.1857    1.5161 C.ar    1  UNL1       -0.0199
     19 C          -3.8965    0.3047    2.5181 C.ar    1  UNL1        0.1169
     20 O          -4.4157    0.7519    3.6964 O.3     1  UNL1       -0.5068
     21 C          -3.7723   -1.0675    2.3448 C.ar    1  UNL1       -0.0199
     22 C          -3.2455   -1.5711    1.1543 C.ar    1  UNL1       -0.0550
     23 H           3.5256    0.6343    2.1078 H       1  UNL1        0.0230
     24 H           4.5371   -0.7995    1.9387 H       1  UNL1        0.0230
     25 H           4.7086    0.5245    0.7854 H       1  UNL1        0.0230
     26 H           2.2745   -1.2902    1.1596 H       1  UNL1        0.0278
     27 H           3.4444   -1.4521   -0.1332 H       1  UNL1        0.0278
     28 H           2.0878    1.9645    0.9471 H       1  UNL1        0.0278
     29 H           0.7624    0.8535    1.2315 H       1  UNL1        0.0278
     30 H          -0.3131    1.6609   -0.9223 H       1  UNL1        0.0230
     31 H          -0.0719    2.9316    0.2826 H       1  UNL1        0.0230
     32 H           1.0124    2.8188   -1.1069 H       1  UNL1        0.0230
     33 H           3.8091    0.7102   -3.1979 H       1  UNL1        0.1614
     34 H          -0.0465   -1.0239    0.5721 H       1  UNL1        0.2909
     35 H          -1.1828   -2.9281   -0.2980 H       1  UNL1        0.0727
     36 H          -0.6880   -2.5212   -1.9260 H       1  UNL1        0.0727
     37 H          -3.0173   -1.8389   -1.6501 H       1  UNL1        0.0350
     38 H          -2.0225   -0.4029   -1.8355 H       1  UNL1        0.0350
     39 H          -2.6885    1.3778   -0.4581 H       1  UNL1        0.0621
     40 H          -3.6094    2.2593    1.6383 H       1  UNL1        0.0654
     41 H          -4.4757    1.7206    3.6612 H       1  UNL1        0.2921
     42 H          -4.0917   -1.7446    3.1322 H       1  UNL1        0.0654
     43 H          -3.1712   -2.6490    1.0306 H       1  UNL1        0.0621
@<TRIPOS>BOND
     1     1     2    1
     2     2     3    1
     3     3     4    1
     4     4     5    1
     5     3     6    1
     6     6     7    2
     7     6     8   am
     8     8     9   am
     9     9    10    2
    10     9    11    1
    11    11    12    2
    12    12    13    1
    13    13    14    1
    14    14    15    1
    15    15    16    1
    16    16    17   ar
    17    17    18   ar
    18    18    19   ar
    19    19    20    1
    20    19    21   ar
    21    21    22   ar
    22    12     3    1
    23    22    16   ar
    24     1    23    1
    25     1    24    1
    26     1    25    1
    27     2    26    1
    28     2    27    1
    29     4    28    1
    30     4    29    1
    31     5    30    1
    32     5    31    1
    33     5    32    1
    34     8    33    1
    35    13    34    1
    36    14    35    1
    37    14    36    1
    38    15    37    1
    39    15    38    1
    40    17    39    1
    41    18    40    1
    42    20    41    1
    43    21    42    1
    44    22    43    1
