@<TRIPOS>MOLECULE
*****
 38 39 0 0 0
SMALL
GASTEIGER

@<TRIPOS>ATOM
      1 C          -2.3373   -1.1451    2.6311 C.3     1  UNL1       -0.0601
      2 C          -2.4892   -0.0161    1.6277 C.3     1  UNL1       -0.0156
      3 C          -1.5472   -0.1255    0.4526 C.2     1  UNL1        0.0375
      4 N          -0.5430   -0.9525    0.4344 N.2     1  UNL1       -0.2647
      5 C           0.1064   -0.6727   -0.8704 C.3     1  UNL1        0.1550
      6 C           1.6213   -0.6796   -0.7811 C.ar    1  UNL1        0.0349
      7 C           2.3519   -1.5444   -1.6188 C.ar    1  UNL1       -0.0517
      8 C           3.7487   -1.5704   -1.5891 C.ar    1  UNL1       -0.0612
      9 C           4.4432   -0.7249   -0.7286 C.ar    1  UNL1       -0.0583
     10 C           3.7411    0.1404    0.1076 C.ar    1  UNL1       -0.0196
     11 C           2.3414    0.1497    0.0945 C.ar    1  UNL1        0.1266
     12 O           1.6825    1.0398    0.9048 O.3     1  UNL1       -0.4947
     13 C           1.7264    0.6023    2.2631 C.3     1  UNL1        0.0788
     14 N          -0.3976    0.6111   -1.3868 N.4     1  UNL1       -0.1509
     15 O          -0.4809    0.5507   -2.8328 O.3     1  UNL1       -0.3091
     16 C          -1.7360    0.7375   -0.7932 C.3     1  UNL1        0.0814
     17 C          -1.9905    2.2050   -0.4645 C.3     1  UNL1       -0.0393
     18 C          -2.8828    0.1473   -1.6266 C.3     1  UNL1       -0.0393
     19 H          -1.3329   -1.1543    3.0673 H       1  UNL1        0.0233
     20 H          -2.5086   -2.1178    2.1583 H       1  UNL1        0.0233
     21 H          -3.0590   -1.0291    3.4456 H       1  UNL1        0.0233
     22 H          -2.3012    0.9420    2.1237 H       1  UNL1        0.0323
     23 H          -3.5172   -0.0013    1.2527 H       1  UNL1        0.0323
     24 H          -0.2104   -1.4873   -1.5381 H       1  UNL1        0.0788
     25 H           1.8298   -2.2060   -2.3070 H       1  UNL1        0.0623
     26 H           4.2925   -2.2461   -2.2440 H       1  UNL1        0.0618
     27 H           5.5295   -0.7342   -0.7131 H       1  UNL1        0.0619
     28 H           4.2835    0.8155    0.7628 H       1  UNL1        0.0654
     29 H           2.6989    0.8348    2.7091 H       1  UNL1        0.0660
     30 H           1.5108   -0.4678    2.3625 H       1  UNL1        0.0660
     31 H           0.9603    1.1539    2.8164 H       1  UNL1        0.0660
     32 H           0.2070    1.1995   -3.0794 H       1  UNL1        0.2367
     33 H          -1.2347    2.5994    0.2253 H       1  UNL1        0.0252
     34 H          -1.9792    2.8238   -1.3690 H       1  UNL1        0.0252
     35 H          -2.9651    2.3408    0.0179 H       1  UNL1        0.0252
     36 H          -3.8328    0.2007   -1.0829 H       1  UNL1        0.0252
     37 H          -3.0178    0.6905   -2.5684 H       1  UNL1        0.0252
     38 H          -2.7121   -0.9093   -1.8636 H       1  UNL1        0.0252
@<TRIPOS>BOND
     1     1     2    1
     2     2     3    1
     3     3     4    2
     4     4     5    1
     5     5     6    1
     6     6     7   ar
     7     7     8   ar
     8     8     9   ar
     9     9    10   ar
    10    10    11   ar
    11    11    12    1
    12    12    13    1
    13     5    14    1
    14    14    15    1
    15    14    16    1
    16    16    17    1
    17    16    18    1
    18    16     3    1
    19    11     6   ar
    20     1    19    1
    21     1    20    1
    22     1    21    1
    23     2    22    1
    24     2    23    1
    25     5    24    1
    26     7    25    1
    27     8    26    1
    28     9    27    1
    29    10    28    1
    30    13    29    1
    31    13    30    1
    32    13    31    1
    33    15    32    1
    34    17    33    1
    35    17    34    1
    36    17    35    1
    37    18    36    1
    38    18    37    1
    39    18    38    1
