@<TRIPOS>MOLECULE
*****
 34 35 0 0 0
SMALL
GASTEIGER

@<TRIPOS>ATOM
      1 C           5.0190   -0.6996    1.0524 C.3     1  UNL1       -0.0610
      2 C           4.3034   -0.9377   -0.2699 C.3     1  UNL1       -0.0235
      3 C           2.7996   -0.8205   -0.1319 C.ar    1  UNL1        0.0403
      4 C           2.0913    0.3087   -0.3574 C.ar    1  UNL1       -0.0299
      5 C           2.7172    1.6340   -0.7134 C.3     1  UNL1       -0.0386
      6 C           0.6203    0.2667   -0.2367 C.ar    1  UNL1        0.0210
      7 C          -0.2173    1.3651   -0.4760 C.ar    1  UNL1       -0.0474
      8 C          -1.6121    1.2624   -0.3447 C.ar    1  UNL1       -0.0191
      9 C          -2.1983    0.0543    0.0279 C.ar    1  UNL1        0.1247
     10 O          -3.5347   -0.1787    0.1905 O.3     1  UNL1       -0.4827
     11 C          -4.4141    0.9219   -0.0312 C.3     1  UNL1        0.1649
     12 C          -5.8668    0.5105    0.1960 C.2     1  UNL1        0.2481
     13 N          -6.0570   -0.6592    0.8740 N.am    1  UNL1       -0.3265
     14 O          -6.8203    1.1926   -0.1672 O.2     1  UNL1       -0.2723
     15 C          -1.3785   -1.0461    0.2638 C.ar    1  UNL1        0.0231
     16 C           0.0067   -0.9261    0.1282 C.ar    1  UNL1        0.1428
     17 O           0.7541   -2.0850    0.3794 O.2     1  UNL1       -0.4218
     18 C           2.1321   -2.0961    0.2626 C.ar    1  UNL1        0.3407
     19 O           2.7706   -3.1201    0.4845 O.2     1  UNL1       -0.2449
     20 H           4.7119   -1.4279    1.8102 H       1  UNL1        0.0233
     21 H           4.8131    0.3035    1.4407 H       1  UNL1        0.0233
     22 H           6.1013   -0.7923    0.9165 H       1  UNL1        0.0233
     23 H           4.6863   -0.2411   -1.0234 H       1  UNL1        0.0313
     24 H           4.5767   -1.9266   -0.6584 H       1  UNL1        0.0313
     25 H           3.8087    1.6285   -0.6736 H       1  UNL1        0.0278
     26 H           2.4000    2.4124   -0.0103 H       1  UNL1        0.0278
     27 H           2.4312    1.9337   -1.7274 H       1  UNL1        0.0278
     28 H           0.1881    2.3289   -0.7737 H       1  UNL1        0.0626
     29 H          -2.2042    2.1504   -0.5446 H       1  UNL1        0.0654
     30 H          -4.3342    1.2615   -1.0703 H       1  UNL1        0.0795
     31 H          -4.1960    1.7354    0.6701 H       1  UNL1        0.0795
     32 H          -7.0023   -1.0072    0.9587 H       1  UNL1        0.1450
     33 H          -5.2840   -1.3064    0.9764 H       1  UNL1        0.1450
     34 H          -1.8118   -1.9999    0.5520 H       1  UNL1        0.0691
@<TRIPOS>BOND
     1     1     2    1
     2     2     3    1
     3     3     4   ar
     4     4     5    1
     5     4     6   ar
     6     6     7   ar
     7     7     8   ar
     8     8     9   ar
     9     9    10    1
    10    10    11    1
    11    11    12    1
    12    12    13   am
    13    12    14    2
    14     9    15   ar
    15    15    16   ar
    16    16    17   ar
    17    17    18   ar
    18    18    19    2
    19    18     3   ar
    20    16     6   ar
    21     1    20    1
    22     1    21    1
    23     1    22    1
    24     2    23    1
    25     2    24    1
    26     5    25    1
    27     5    26    1
    28     5    27    1
    29     7    28    1
    30     8    29    1
    31    11    30    1
    32    11    31    1
    33    13    32    1
    34    13    33    1
    35    15    34    1
