@<TRIPOS>MOLECULE
*****
 41 42 0 0 0
SMALL
GASTEIGER

@<TRIPOS>ATOM
      1 C          -4.5749   -0.7203   -2.1947 C.3     1  UNL1       -0.0613
      2 C          -4.7241    0.0344   -0.8826 C.3     1  UNL1       -0.0304
      3 C          -3.5405   -0.1833    0.0262 C.ar    1  UNL1       -0.0439
      4 C          -3.5415   -1.2406    0.9465 C.ar    1  UNL1       -0.0554
      5 C          -2.4406   -1.4630    1.7807 C.ar    1  UNL1       -0.0467
      6 C          -2.4609   -2.5694    2.7927 C.3     1  UNL1       -0.0396
      7 C          -1.3408   -0.6009    1.6971 C.ar    1  UNL1       -0.0170
      8 C          -1.3181    0.4509    0.7776 C.ar    1  UNL1        0.1211
      9 O          -0.1741    1.1986    0.8013 O.3     1  UNL1       -0.4904
     10 C          -0.0472    2.2356   -0.1698 C.3     1  UNL1        0.1050
     11 C           1.3285    2.8987   -0.0309 C.3     1  UNL1        0.0461
     12 N           2.4185    1.9865   -0.3539 N.am    1  UNL1       -0.3081
     13 C           3.1210    1.3346    0.6408 C.2     1  UNL1        0.2457
     14 O           2.9890    1.5645    1.8366 O.2     1  UNL1       -0.2701
     15 C           4.0734    0.2888    0.2027 C.ar    1  UNL1        0.0558
     16 C           4.3879   -0.7358    1.0901 C.ar    1  UNL1        0.0397
     17 N           5.2430   -1.7505    0.8023 N.ar    1  UNL1       -0.2614
     18 C           5.8190   -1.7273   -0.4222 C.ar    1  UNL1        0.0415
     19 C           5.5786   -0.7370   -1.3636 C.ar    1  UNL1        0.0367
     20 BR          6.4392   -0.7754   -3.0413 Br      1  UNL1       -0.0487
     21 C           4.6943    0.2916   -1.0490 C.ar    1  UNL1       -0.0327
     22 C          -2.4176    0.6558   -0.0566 C.ar    1  UNL1       -0.0168
     23 H          -4.4896   -1.7990   -2.0249 H       1  UNL1        0.0233
     24 H          -3.6832   -0.3950   -2.7412 H       1  UNL1        0.0233
     25 H          -5.4465   -0.5453   -2.8331 H       1  UNL1        0.0233
     26 H          -4.8434    1.1063   -1.0824 H       1  UNL1        0.0311
     27 H          -5.6434   -0.2827   -0.3752 H       1  UNL1        0.0311
     28 H          -4.4082   -1.8957    1.0143 H       1  UNL1        0.0623
     29 H          -1.4501   -2.9469    2.9794 H       1  UNL1        0.0278
     30 H          -3.0613   -3.4133    2.4368 H       1  UNL1        0.0278
     31 H          -2.8833   -2.2070    3.7349 H       1  UNL1        0.0278
     32 H          -0.4837   -0.7449    2.3524 H       1  UNL1        0.0657
     33 H          -0.8196    2.9954   -0.0028 H       1  UNL1        0.0712
     34 H          -0.1446    1.8198   -1.1803 H       1  UNL1        0.0712
     35 H           1.4617    3.2811    0.9865 H       1  UNL1        0.0495
     36 H           1.4038    3.7364   -0.7314 H       1  UNL1        0.0495
     37 H           2.4466    1.6224   -1.2957 H       1  UNL1        0.1491
     38 H           3.9455   -0.7765    2.0835 H       1  UNL1        0.0837
     39 H           6.5002   -2.5500   -0.6215 H       1  UNL1        0.0841
     40 H           4.5197    1.0919   -1.7601 H       1  UNL1        0.0637
     41 H          -2.4329    1.4666   -0.7770 H       1  UNL1        0.0657
@<TRIPOS>BOND
     1     1     2    1
     2     2     3    1
     3     3     4   ar
     4     4     5   ar
     5     5     6    1
     6     5     7   ar
     7     7     8   ar
     8     8     9    1
     9     9    10    1
    10    10    11    1
    11    11    12    1
    12    12    13   am
    13    13    14    2
    14    13    15    1
    15    15    16   ar
    16    16    17   ar
    17    17    18   ar
    18    18    19   ar
    19    19    20    1
    20    19    21   ar
    21     8    22   ar
    22    22     3   ar
    23    21    15   ar
    24     1    23    1
    25     1    24    1
    26     1    25    1
    27     2    26    1
    28     2    27    1
    29     4    28    1
    30     6    29    1
    31     6    30    1
    32     6    31    1
    33     7    32    1
    34    10    33    1
    35    10    34    1
    36    11    35    1
    37    11    36    1
    38    12    37    1
    39    16    38    1
    40    18    39    1
    41    21    40    1
    42    22    41    1
