@<TRIPOS>MOLECULE
*****
 40 41 0 0 0
SMALL
GASTEIGER

@<TRIPOS>ATOM
      1 C           4.4582    2.4195    0.0096 C.3     1  UNL1       -0.0612
      2 C           4.6645    1.0328   -0.5819 C.3     1  UNL1       -0.0290
      3 C           3.7780    0.0005    0.0725 C.ar    1  UNL1       -0.0259
      4 C           2.5219   -0.2708   -0.5006 C.ar    1  UNL1       -0.0154
      5 C           1.6447   -1.2038    0.0628 C.ar    1  UNL1        0.1209
      6 O           0.4673   -1.3539   -0.6126 O.3     1  UNL1       -0.4904
      7 C          -0.4899   -2.2667   -0.0728 C.3     1  UNL1        0.1058
      8 C          -1.7468   -2.2354   -0.9477 C.3     1  UNL1        0.0580
      9 N          -2.4286   -0.9563   -0.8761 N.am    1  UNL1       -0.2210
     10 C          -2.3532    0.0192   -1.8230 C.2     1  UNL1        0.3094
     11 O          -1.7679   -0.0152   -2.8918 O.2     1  UNL1       -0.2522
     12 N          -3.0767    1.1061   -1.3861 N.am    1  UNL1       -0.2854
     13 C          -3.6232    0.9122   -0.0638 C.3     1  UNL1        0.1070
     14 C          -3.0002    1.8755    0.9378 C.3     1  UNL1       -0.0353
     15 C          -5.1434    0.9805   -0.0755 C.3     1  UNL1       -0.0353
     16 C          -3.1440   -0.5231    0.2061 C.2     1  UNL1        0.2461
     17 O          -3.3562   -1.1612    1.2292 O.2     1  UNL1       -0.2728
     18 C           2.0203   -1.8810    1.2197 C.ar    1  UNL1       -0.0185
     19 C           3.2611   -1.6193    1.8080 C.ar    1  UNL1       -0.0397
     20 C           4.1337   -0.6842    1.2429 C.ar    1  UNL1        0.0444
     21 CL          5.6419   -0.4154    2.0409 Cl      1  UNL1       -0.0833
     22 H           3.4212    2.7510   -0.1107 H       1  UNL1        0.0233
     23 H           5.1056    3.1447   -0.4936 H       1  UNL1        0.0233
     24 H           4.6940    2.4405    1.0785 H       1  UNL1        0.0233
     25 H           4.4535    1.0660   -1.6584 H       1  UNL1        0.0311
     26 H           5.7177    0.7403   -0.5058 H       1  UNL1        0.0311
     27 H           2.2134    0.2527   -1.4050 H       1  UNL1        0.0657
     28 H          -0.7422   -1.9869    0.9567 H       1  UNL1        0.0712
     29 H          -0.0768   -3.2822   -0.0899 H       1  UNL1        0.0712
     30 H          -1.4821   -2.4340   -1.9919 H       1  UNL1        0.0503
     31 H          -2.4442   -3.0069   -0.6036 H       1  UNL1        0.0503
     32 H          -3.1147    1.9560   -1.9337 H       1  UNL1        0.1513
     33 H          -3.3707    1.6869    1.9514 H       1  UNL1        0.0255
     34 H          -1.9087    1.7737    0.9650 H       1  UNL1        0.0255
     35 H          -3.2276    2.9152    0.6778 H       1  UNL1        0.0255
     36 H          -5.4908    1.9705   -0.3911 H       1  UNL1        0.0255
     37 H          -5.5709    0.2451   -0.7672 H       1  UNL1        0.0255
     38 H          -5.5567    0.7729    0.9177 H       1  UNL1        0.0255
     39 H           1.3763   -2.6150    1.6920 H       1  UNL1        0.0654
     40 H           3.5425   -2.1506    2.7142 H       1  UNL1        0.0633
@<TRIPOS>BOND
     1     1     2    1
     2     2     3    1
     3     3     4   ar
     4     4     5   ar
     5     5     6    1
     6     6     7    1
     7     7     8    1
     8     8     9    1
     9     9    10   am
    10    10    11    2
    11    10    12   am
    12    12    13    1
    13    13    14    1
    14    13    15    1
    15    13    16    1
    16    16    17    2
    17     5    18   ar
    18    18    19   ar
    19    19    20   ar
    20    20    21    1
    21    20     3   ar
    22    16     9   am
    23     1    22    1
    24     1    23    1
    25     1    24    1
    26     2    25    1
    27     2    26    1
    28     4    27    1
    29     7    28    1
    30     7    29    1
    31     8    30    1
    32     8    31    1
    33    12    32    1
    34    14    33    1
    35    14    34    1
    36    14    35    1
    37    15    36    1
    38    15    37    1
    39    15    38    1
    40    18    39    1
    41    19    40    1
