@<TRIPOS>MOLECULE
*****
 35 36 0 0 0
SMALL
GASTEIGER

@<TRIPOS>ATOM
      1 C          -5.0461    1.8599   -0.5061 C.3     1  UNL1       -0.0613
      2 C          -5.0319    0.4054   -0.0620 C.3     1  UNL1       -0.0305
      3 C          -3.6267   -0.1144    0.1084 C.ar    1  UNL1       -0.0476
      4 C          -2.9735   -0.0002    1.3423 C.ar    1  UNL1       -0.0579
      5 C          -1.6669   -0.4693    1.4970 C.ar    1  UNL1       -0.0494
      6 C          -0.9915   -1.0454    0.4153 C.ar    1  UNL1        0.0367
      7 C           0.4012   -1.5290    0.6267 C.2     1  UNL1        0.2443
      8 O           0.7708   -1.8714    1.7442 O.2     1  UNL1       -0.2702
      9 N           1.2222   -1.5249   -0.4813 N.am    1  UNL1       -0.3072
     10 C           2.6301   -1.8351   -0.3745 C.3     1  UNL1        0.0371
     11 C           3.4535   -0.5733   -0.3074 C.ar    1  UNL1       -0.0302
     12 C           4.0683   -0.0547   -1.4565 C.ar    1  UNL1       -0.0557
     13 C           4.8112    1.1267   -1.3885 C.ar    1  UNL1       -0.0431
     14 C           4.9372    1.7981   -0.1738 C.ar    1  UNL1        0.0410
     15 CL          5.8506    3.2542   -0.0939 Cl      1  UNL1       -0.0835
     16 C           4.3259    1.3001    0.9741 C.ar    1  UNL1       -0.0431
     17 C           3.5842    0.1189    0.9065 C.ar    1  UNL1       -0.0557
     18 C          -1.6423   -1.1706   -0.8178 C.ar    1  UNL1       -0.0494
     19 C          -2.9505   -0.7013   -0.9697 C.ar    1  UNL1       -0.0579
     20 H          -6.0766    2.2103   -0.6216 H       1  UNL1        0.0233
     21 H          -4.5488    2.5041    0.2270 H       1  UNL1        0.0233
     22 H          -4.5348    1.9872   -1.4664 H       1  UNL1        0.0233
     23 H          -5.5671   -0.2113   -0.7943 H       1  UNL1        0.0311
     24 H          -5.5812    0.3004    0.8816 H       1  UNL1        0.0311
     25 H          -3.4786    0.4524    2.1931 H       1  UNL1        0.0620
     26 H          -1.1747   -0.3806    2.4635 H       1  UNL1        0.0625
     27 H           0.9306   -1.0067   -1.2975 H       1  UNL1        0.1493
     28 H           2.9001   -2.4189   -1.2614 H       1  UNL1        0.0512
     29 H           2.8276   -2.4649    0.5002 H       1  UNL1        0.0512
     30 H           3.9754   -0.5677   -2.4112 H       1  UNL1        0.0621
     31 H           5.2869    1.5176   -2.2839 H       1  UNL1        0.0632
     32 H           4.4185    1.8237    1.9216 H       1  UNL1        0.0632
     33 H           3.1004   -0.2624    1.8056 H       1  UNL1        0.0621
     34 H          -1.1589   -1.6529   -1.6621 H       1  UNL1        0.0625
     35 H          -3.4445   -0.8042   -1.9339 H       1  UNL1        0.0620
@<TRIPOS>BOND
     1     1     2    1
     2     2     3    1
     3     3     4   ar
     4     4     5   ar
     5     5     6   ar
     6     6     7    1
     7     7     8    2
     8     7     9   am
     9     9    10    1
    10    10    11    1
    11    11    12   ar
    12    12    13   ar
    13    13    14   ar
    14    14    15    1
    15    14    16   ar
    16    16    17   ar
    17     6    18   ar
    18    18    19   ar
    19    19     3   ar
    20    17    11   ar
    21     1    20    1
    22     1    21    1
    23     1    22    1
    24     2    23    1
    25     2    24    1
    26     4    25    1
    27     5    26    1
    28     9    27    1
    29    10    28    1
    30    10    29    1
    31    12    30    1
    32    13    31    1
    33    16    32    1
    34    17    33    1
    35    18    34    1
    36    19    35    1
