@<TRIPOS>MOLECULE
*****
 23 24 0 0 0
SMALL
GASTEIGER

@<TRIPOS>ATOM
      1 C          -3.5585    0.7894    0.6885 C.3     1  UNL1       -0.0613
      2 C          -2.9632   -0.4621    0.0618 C.3     1  UNL1       -0.0305
      3 C          -1.4655   -0.3618   -0.0763 C.ar    1  UNL1       -0.0476
      4 C          -0.6263   -0.7868    0.9603 C.ar    1  UNL1       -0.0579
      5 C           0.7629   -0.6787    0.8388 C.ar    1  UNL1       -0.0507
      6 C           1.3398   -0.1394   -0.3192 C.ar    1  UNL1        0.0227
      7 C           2.7876   -0.0287   -0.4407 C.ar    1  UNL1        0.2043
      8 N           3.6564   -0.4375    0.5481 N.ar    1  UNL1       -0.1080
      9 N           4.8826   -0.1936    0.1095 N.ar    1  UNL1       -0.0485
     10 N           4.7042    0.3416   -1.1019 N.ar    1  UNL1       -0.1761
     11 N           3.4342    0.4746   -1.5091 N.ar    1  UNL1       -0.1331
     12 C           0.4957    0.2912   -1.3523 C.ar    1  UNL1       -0.0507
     13 C          -0.8934    0.1835   -1.2315 C.ar    1  UNL1       -0.0579
     14 H          -3.3479    1.6765    0.0815 H       1  UNL1        0.0233
     15 H          -3.1519    0.9639    1.6905 H       1  UNL1        0.0233
     16 H          -4.6449    0.6886    0.7763 H       1  UNL1        0.0233
     17 H          -3.2198   -1.3388    0.6690 H       1  UNL1        0.0311
     18 H          -3.4138   -0.6336   -0.9234 H       1  UNL1        0.0311
     19 H          -1.0477   -1.2051    1.8720 H       1  UNL1        0.0620
     20 H           1.3895   -1.0197    1.6609 H       1  UNL1        0.0625
     21 H           5.4902    0.6297   -1.6776 H       1  UNL1        0.2143
     22 H           0.9144    0.7170   -2.2623 H       1  UNL1        0.0625
     23 H          -1.5247    0.5297   -2.0470 H       1  UNL1        0.0620
@<TRIPOS>BOND
     1     1     2    1
     2     2     3    1
     3     3     4   ar
     4     4     5   ar
     5     5     6   ar
     6     6     7    1
     7     7     8   ar
     8     8     9   ar
     9     9    10   ar
    10    10    11   ar
    11     6    12   ar
    12    12    13   ar
    13    13     3   ar
    14    11     7   ar
    15     1    14    1
    16     1    15    1
    17     1    16    1
    18     2    17    1
    19     2    18    1
    20     4    19    1
    21     5    20    1
    22    10    21    1
    23    12    22    1
    24    13    23    1
