@<TRIPOS>MOLECULE
*****
 47 49 0 0 0
SMALL
GASTEIGER

@<TRIPOS>ATOM
      1 C           5.8995   -0.2452    3.5966 C.3     1  UNL1       -0.0613
      2 C           5.8771    0.8550    2.5466 C.3     1  UNL1       -0.0305
      3 C           4.7671    0.6536    1.5476 C.ar    1  UNL1       -0.0475
      4 C           4.9795   -0.0971    0.3874 C.ar    1  UNL1       -0.0568
      5 C           3.9411   -0.2950   -0.5280 C.ar    1  UNL1       -0.0402
      6 C           2.6698    0.2449   -0.2977 C.ar    1  UNL1        0.0337
      7 N           1.6805    0.0038   -1.2748 N.am    1  UNL1       -0.2815
      8 C           0.3397    0.3397   -1.2128 C.2     1  UNL1        0.2500
      9 O          -0.2472    0.8178   -0.2459 O.2     1  UNL1       -0.2698
     10 C          -0.4612    0.0034   -2.4338 C.ar    1  UNL1        0.0582
     11 C           0.1342    0.1139   -3.7036 C.ar    1  UNL1       -0.0478
     12 C          -0.5825   -0.2293   -4.8481 C.ar    1  UNL1       -0.0609
     13 C          -1.8949   -0.6749   -4.7323 C.ar    1  UNL1       -0.0600
     14 C          -2.5052   -0.7607   -3.4767 C.ar    1  UNL1       -0.0397
     15 C          -1.8095   -0.4115   -2.3141 C.ar    1  UNL1        0.0456
     16 N          -2.4094   -0.4446   -1.0311 N.am    1  UNL1       -0.2827
     17 C          -3.6874   -0.8499   -0.6785 C.2     1  UNL1        0.2461
     18 O          -4.5250   -1.3238   -1.4402 O.2     1  UNL1       -0.2726
     19 C          -3.9634   -0.6399    0.8279 C.3     1  UNL1        0.1347
     20 C          -4.0220    0.8473    1.1697 C.3     1  UNL1       -0.0159
     21 C          -5.1132    0.9200    2.2080 C.3     1  UNL1       -0.0266
     22 C          -6.0466   -0.1727    1.7483 C.3     1  UNL1        0.0487
     23 O          -5.1974   -1.2205    1.2744 O.3     1  UNL1       -0.3673
     24 C           2.4581    0.9930    0.8602 C.ar    1  UNL1       -0.0402
     25 C           3.4967    1.1924    1.7773 C.ar    1  UNL1       -0.0568
     26 H           6.0504   -1.2286    3.1386 H       1  UNL1        0.0233
     27 H           6.7142   -0.0735    4.3072 H       1  UNL1        0.0233
     28 H           4.9600   -0.2772    4.1588 H       1  UNL1        0.0233
     29 H           5.7620    1.8307    3.0344 H       1  UNL1        0.0311
     30 H           6.8413    0.8891    2.0249 H       1  UNL1        0.0311
     31 H           5.9553   -0.5346    0.1885 H       1  UNL1        0.0621
     32 H           4.1444   -0.8831   -1.4189 H       1  UNL1        0.0636
     33 H           1.9819   -0.5490   -2.0669 H       1  UNL1        0.1551
     34 H           1.1467    0.4916   -3.8203 H       1  UNL1        0.0626
     35 H          -0.1234   -0.1428   -5.8301 H       1  UNL1        0.0618
     36 H          -2.4605   -0.9445   -5.6219 H       1  UNL1        0.0618
     37 H          -3.5384   -1.0941   -3.4450 H       1  UNL1        0.0636
     38 H          -1.8228   -0.0670   -0.2831 H       1  UNL1        0.1549
     39 H          -3.1642   -1.1363    1.3913 H       1  UNL1        0.0693
     40 H          -3.0638    1.2298    1.5349 H       1  UNL1        0.0296
     41 H          -4.2997    1.4449    0.2926 H       1  UNL1        0.0296
     42 H          -4.7001    0.6712    3.1926 H       1  UNL1        0.0288
     43 H          -5.5943    1.8993    2.2708 H       1  UNL1        0.0288
     44 H          -6.6789    0.1606    0.9180 H       1  UNL1        0.0560
     45 H          -6.6865   -0.5484    2.5511 H       1  UNL1        0.0560
     46 H           1.4962    1.4438    1.0811 H       1  UNL1        0.0636
     47 H           3.3016    1.7758    2.6748 H       1  UNL1        0.0621
@<TRIPOS>BOND
     1     1     2    1
     2     2     3    1
     3     3     4   ar
     4     4     5   ar
     5     5     6   ar
     6     6     7    1
     7     7     8   am
     8     8     9    2
     9     8    10    1
    10    10    11   ar
    11    11    12   ar
    12    12    13   ar
    13    13    14   ar
    14    14    15   ar
    15    15    16    1
    16    16    17   am
    17    17    18    2
    18    17    19    1
    19    19    20    1
    20    20    21    1
    21    21    22    1
    22    22    23    1
    23     6    24   ar
    24    24    25   ar
    25    25     3   ar
    26    15    10   ar
    27    23    19    1
    28     1    26    1
    29     1    27    1
    30     1    28    1
    31     2    29    1
    32     2    30    1
    33     4    31    1
    34     5    32    1
    35     7    33    1
    36    11    34    1
    37    12    35    1
    38    13    36    1
    39    14    37    1
    40    16    38    1
    41    19    39    1
    42    20    40    1
    43    20    41    1
    44    21    42    1
    45    21    43    1
    46    22    44    1
    47    22    45    1
    48    24    46    1
    49    25    47    1
