@<TRIPOS>MOLECULE
*****
 35 37 0 0 0
SMALL
GASTEIGER

@<TRIPOS>ATOM
      1 C           5.7392    0.3808   -1.7333 C.3     1  UNL1       -0.0613
      2 C           5.2502    0.4156   -0.2927 C.3     1  UNL1       -0.0305
      3 C           3.7704    0.1484   -0.1940 C.ar    1  UNL1       -0.0475
      4 C           3.2965   -1.1362    0.0895 C.ar    1  UNL1       -0.0568
      5 C           1.9221   -1.3919    0.1686 C.ar    1  UNL1       -0.0402
      6 C           0.9977   -0.3694   -0.0418 C.ar    1  UNL1        0.0337
      7 N          -0.4021   -0.5363    0.0202 N.am    1  UNL1       -0.2802
      8 C          -1.1115   -1.7089    0.2488 C.2     1  UNL1        0.2702
      9 O          -0.6025   -2.8147    0.3992 O.2     1  UNL1       -0.2681
     10 C          -2.5753   -1.5213    0.2882 C.ar    1  UNL1        0.1713
     11 N          -3.4081   -2.5934    0.2232 N.ar    1  UNL1       -0.0731
     12 O          -4.7167   -2.1023    0.2931 O.2     1  UNL1       -0.3586
     13 C          -4.6285   -0.7782    0.3955 C.ar    1  UNL1        0.1412
     14 C          -3.3446   -0.3458    0.4037 C.ar    1  UNL1        0.0269
     15 C          -3.2992    1.1171    0.5522 C.3     1  UNL1       -0.0217
     16 C          -4.7944    1.4584    0.9291 C.3     1  UNL1       -0.0419
     17 C          -5.6823    0.2228    0.5342 C.3     1  UNL1        0.0088
     18 C           1.4721    0.9165   -0.3304 C.ar    1  UNL1       -0.0402
     19 C           2.8446    1.1735   -0.4084 C.ar    1  UNL1       -0.0568
     20 H           5.2432    1.1461   -2.3415 H       1  UNL1        0.0233
     21 H           6.8174    0.5658   -1.7704 H       1  UNL1        0.0233
     22 H           5.5446   -0.5938   -2.1960 H       1  UNL1        0.0233
     23 H           5.8025   -0.3236    0.3012 H       1  UNL1        0.0311
     24 H           5.4748    1.3925    0.1541 H       1  UNL1        0.0311
     25 H           3.9925   -1.9560    0.2514 H       1  UNL1        0.0621
     26 H           1.6139   -2.4079    0.3942 H       1  UNL1        0.0636
     27 H          -0.9438    0.2933   -0.1656 H       1  UNL1        0.1552
     28 H          -3.0300    1.5996   -0.3932 H       1  UNL1        0.0315
     29 H          -2.6148    1.4473    1.3385 H       1  UNL1        0.0315
     30 H          -5.1367    2.3814    0.4497 H       1  UNL1        0.0273
     31 H          -4.8589    1.6101    2.0148 H       1  UNL1        0.0273
     32 H          -6.1923    0.4023   -0.4156 H       1  UNL1        0.0344
     33 H          -6.4103   -0.0109    1.3142 H       1  UNL1        0.0344
     34 H           0.7844    1.7399   -0.5028 H       1  UNL1        0.0636
     35 H           3.1859    2.1792   -0.6425 H       1  UNL1        0.0621
@<TRIPOS>BOND
     1     1     2    1
     2     2     3    1
     3     3     4   ar
     4     4     5   ar
     5     5     6   ar
     6     6     7    1
     7     7     8   am
     8     8     9    2
     9     8    10    1
    10    10    11   ar
    11    11    12   ar
    12    12    13   ar
    13    13    14   ar
    14    14    15    1
    15    15    16    1
    16    16    17    1
    17     6    18   ar
    18    18    19   ar
    19    19     3   ar
    20    14    10   ar
    21    17    13    1
    22     1    20    1
    23     1    21    1
    24     1    22    1
    25     2    23    1
    26     2    24    1
    27     4    25    1
    28     5    26    1
    29     7    27    1
    30    15    28    1
    31    15    29    1
    32    16    30    1
    33    16    31    1
    34    17    32    1
    35    17    33    1
    36    18    34    1
    37    19    35    1
