@<TRIPOS>MOLECULE
*****
 42 45 0 0 0
SMALL
GASTEIGER

@<TRIPOS>ATOM
      1 C           5.6657   -0.9136   -0.7598 C.3     1  UNL1       -0.0650
      2 C           4.6163   -0.7512    0.3305 C.3     1  UNL1       -0.0527
      3 C           3.1940   -0.5326   -0.2158 C.3     1  UNL1       -0.0365
      4 C           2.1798   -0.5011    0.9513 C.3     1  UNL1       -0.0459
      5 C           0.7294   -0.4178    0.4494 C.3     1  UNL1       -0.0259
      6 C           0.5664    0.6178   -0.6234 C.ar    1  UNL1       -0.0246
      7 C           1.6575    1.1288   -1.3019 C.ar    1  UNL1       -0.0040
      8 S           1.2223    2.3022   -2.4515 S.2     1  UNL1       -0.0732
      9 C          -0.4315    2.1437   -2.0725 C.ar    1  UNL1        0.1137
     10 N          -1.3437    2.8959   -2.7097 N.ar    1  UNL1       -0.2281
     11 C          -2.5839    2.6456   -2.2906 C.ar    1  UNL1        0.1193
     12 N          -2.9729    1.7572   -1.3641 N.ar    1  UNL1       -0.2201
     13 C          -2.0338    0.9994   -0.7465 C.ar    1  UNL1        0.1332
     14 N          -2.4351    0.0309    0.1953 N.pl3   1  UNL1       -0.3102
     15 C          -2.7517   -1.2312   -0.5191 C.3     1  UNL1        0.0370
     16 C          -3.6697   -2.1094    0.3444 C.3     1  UNL1        0.0634
     17 O          -4.9451   -1.5040    0.6127 O.3     1  UNL1       -0.3767
     18 C          -4.9016   -0.0660    0.5949 C.3     1  UNL1        0.0634
     19 C          -3.5498    0.4996    1.0552 C.3     1  UNL1        0.0370
     20 C          -0.6757    1.1940   -1.0902 C.ar    1  UNL1        0.0510
     21 C           3.0900    0.7596   -1.0601 C.3     1  UNL1       -0.0182
     22 H           5.3949   -1.7197   -1.4489 H       1  UNL1        0.0230
     23 H           6.6346   -1.1604   -0.3139 H       1  UNL1        0.0230
     24 H           5.7924    0.0079   -1.3356 H       1  UNL1        0.0230
     25 H           4.9019    0.0834    0.9823 H       1  UNL1        0.0265
     26 H           4.6265   -1.6546    0.9529 H       1  UNL1        0.0265
     27 H           2.9368   -1.3875   -0.8575 H       1  UNL1        0.0304
     28 H           2.3930    0.3630    1.5947 H       1  UNL1        0.0271
     29 H           2.2873   -1.3962    1.5757 H       1  UNL1        0.0271
     30 H           0.0753   -0.1986    1.3000 H       1  UNL1        0.0314
     31 H           0.4352   -1.3929    0.0439 H       1  UNL1        0.0314
     32 H          -3.3739    3.2263   -2.7566 H       1  UNL1        0.1048
     33 H          -3.2603   -1.0316   -1.4726 H       1  UNL1        0.0487
     34 H          -1.8248   -1.7734   -0.7346 H       1  UNL1        0.0487
     35 H          -3.8600   -3.0641   -0.1559 H       1  UNL1        0.0575
     36 H          -3.1960   -2.3315    1.3077 H       1  UNL1        0.0575
     37 H          -5.7006    0.2897    1.2532 H       1  UNL1        0.0575
     38 H          -5.1452    0.2641   -0.4210 H       1  UNL1        0.0575
     39 H          -3.5890    1.5934    1.1321 H       1  UNL1        0.0487
     40 H          -3.3435    0.1279    2.0668 H       1  UNL1        0.0487
     41 H           3.5821    1.5889   -0.5361 H       1  UNL1        0.0321
     42 H           3.6065    0.6180   -2.0168 H       1  UNL1        0.0321
@<TRIPOS>BOND
     1     1     2    1
     2     2     3    1
     3     3     4    1
     4     4     5    1
     5     5     6    1
     6     6     7   ar
     7     7     8   ar
     8     8     9   ar
     9     9    10   ar
    10    10    11   ar
    11    11    12   ar
    12    12    13   ar
    13    13    14    1
    14    14    15    1
    15    15    16    1
    16    16    17    1
    17    17    18    1
    18    18    19    1
    19    13    20   ar
    20     7    21    1
    21    21     3    1
    22    20     6   ar
    23    20     9   ar
    24    19    14    1
    25     1    22    1
    26     1    23    1
    27     1    24    1
    28     2    25    1
    29     2    26    1
    30     3    27    1
    31     4    28    1
    32     4    29    1
    33     5    30    1
    34     5    31    1
    35    11    32    1
    36    15    33    1
    37    15    34    1
    38    16    35    1
    39    16    36    1
    40    18    37    1
    41    18    38    1
    42    19    39    1
    43    19    40    1
    44    21    41    1
    45    21    42    1
