@<TRIPOS>MOLECULE
*****
 41 47 0 0 0
SMALL
GASTEIGER

@<TRIPOS>ATOM
      1 SI          5.9727   -0.9166    0.6007 Si      1  UNL1        0.0000
      2 C           6.9893    0.4227    1.4391 C.2     1  UNL1        0.0000
      3 C           6.2100    1.4537    1.8133 C.2     1  UNL1        0.0000
      4 C           4.7963    1.3069    1.4953 C.2     1  UNL1        0.0000
      5 C           4.4600    0.1595    0.8694 C.2     1  UNL1        0.0000
      6 C           3.1380   -0.1680    0.4786 C.ar    1  UNL1        0.0000
      7 C           2.6346   -1.2970   -0.1784 C.ar    1  UNL1        0.0000
      8 C           1.2659   -1.0840   -0.3009 C.ar    1  UNL1        0.0000
      9 C           0.2322   -1.8247   -0.9195 C.ar    1  UNL1        0.0000
     10 C           0.4221   -2.9878   -1.6048 C.ar    1  UNL1        0.0000
     11 S          -1.0690   -3.4376   -2.3293 S.2     1  UNL1        0.0000
     12 C          -1.8758   -2.0405   -1.7051 C.ar    1  UNL1        0.0000
     13 C          -1.0889   -1.2878   -0.8587 C.ar    1  UNL1        0.0000
     14 C          -1.5234   -0.0802   -0.1979 C.ar    1  UNL1        0.0000
     15 C          -0.3968    0.6449    0.2818 C.ar    1  UNL1        0.0000
     16 C          -0.5856    1.9239    0.7923 C.ar    1  UNL1        0.0000
     17 N          -1.7839    2.5477    0.8640 N.ar    1  UNL1        0.0000
     18 C          -2.8893    1.8820    0.5162 C.ar    1  UNL1        0.0000
     19 C          -4.1048    2.6079    0.6828 C.ar    1  UNL1        0.0000
     20 C          -5.4144    2.1184    0.4800 C.ar    1  UNL1        0.0000
     21 C          -5.3502    0.7826    0.1455 C.ar    1  UNL1        0.0000
     22 C          -6.4195   -0.0589    0.0042 C.ar    1  UNL1        0.0000
     23 O          -5.9639   -1.3289   -0.1981 O.2     1  UNL1        0.0000
     24 C          -4.5967   -1.2797   -0.1891 C.ar    1  UNL1        0.0000
     25 C          -4.1626    0.0166   -0.0586 C.ar    1  UNL1        0.0000
     26 C          -2.8297    0.5232    0.0371 C.ar    1  UNL1        0.0000
     27 C           0.9183    0.1201    0.2446 C.ar    1  UNL1        0.0000
     28 O           2.0661    0.6900    0.7202 O.2     1  UNL1        0.0000
     29 H           5.9397   -2.1750    1.3879 H       1  UNL1        0.0000
     30 H           6.3251   -1.0782   -0.8324 H       1  UNL1        0.0000
     31 H           8.0547    0.3281    1.5774 H       1  UNL1        0.0000
     32 H           6.5781    2.3402    2.3154 H       1  UNL1        0.0000
     33 H           4.0927    2.0881    1.7597 H       1  UNL1        0.0000
     34 H           3.2078   -2.1457   -0.5221 H       1  UNL1        0.0000
     35 H           1.3181   -3.5717   -1.7619 H       1  UNL1        0.0000
     36 H          -2.8839   -1.8649   -2.0456 H       1  UNL1        0.0000
     37 H           0.2503    2.5212    1.1509 H       1  UNL1        0.0000
     38 H          -4.0108    3.6421    1.0237 H       1  UNL1        0.0000
     39 H          -6.3064    2.7044    0.6455 H       1  UNL1        0.0000
     40 H          -7.4935    0.0503    0.0590 H       1  UNL1        0.0000
     41 H          -4.1228   -2.2477   -0.2518 H       1  UNL1        0.0000
@<TRIPOS>BOND
     1     1     2    1
     2     2     3    2
     3     3     4    1
     4     4     5    2
     5     5     6    1
     6     6     7   ar
     7     7     8   ar
     8     8     9   ar
     9     9    10   ar
    10    10    11   ar
    11    11    12   ar
    12    12    13   ar
    13    13    14   ar
    14    14    15   ar
    15    15    16   ar
    16    16    17   ar
    17    17    18   ar
    18    18    19   ar
    19    19    20   ar
    20    20    21   ar
    21    21    22   ar
    22    22    23   ar
    23    23    24   ar
    24    24    25   ar
    25    25    26   ar
    26    15    27   ar
    27    27    28   ar
    28     5     1    1
    29    28     6   ar
    30    27     8   ar
    31    13     9   ar
    32    26    14   ar
    33    26    18   ar
    34    25    21   ar
    35     1    29    1
    36     1    30    1
    37     2    31    1
    38     3    32    1
    39     4    33    1
    40     7    34    1
    41    10    35    1
    42    12    36    1
    43    16    37    1
    44    19    38    1
    45    20    39    1
    46    22    40    1
    47    24    41    1
