@<TRIPOS>MOLECULE
*****
 41 42 0 0 0
SMALL
GASTEIGER

@<TRIPOS>ATOM
      1 C           4.3643   -1.2818   -2.3255 C.3     1  UNL1       -0.0598
      2 C           3.4473   -0.1025   -2.6130 C.3     1  UNL1       -0.0129
      3 C           2.7166    0.3526   -1.3726 C.ar    1  UNL1        0.0467
      4 N           3.3884    1.2722   -0.6353 N.ar    1  UNL1       -0.2357
      5 C           2.8249    1.7547    0.4840 C.ar    1  UNL1        0.1346
      6 N           3.5862    2.7221    1.1353 N.pl3   1  UNL1       -0.3421
      7 C           1.5622    1.3600    0.9144 C.ar    1  UNL1        0.0991
      8 C           1.0073    1.9335    2.1056 C.1     1  UNL1        0.1032
      9 N           0.5763    2.3768    3.0889 N.1     1  UNL1       -0.1907
     10 C           0.8540    0.3973    0.1631 C.ar    1  UNL1        0.0075
     11 C          -0.4975   -0.0242    0.5797 C.ar    1  UNL1       -0.0126
     12 C          -0.6698   -1.0252    1.5439 C.ar    1  UNL1       -0.0503
     13 C          -1.9500   -1.4320    1.9300 C.ar    1  UNL1       -0.0157
     14 C          -3.0819   -0.8417    1.3602 C.ar    1  UNL1        0.1615
     15 O          -4.3745   -1.1828    1.6720 O.3     1  UNL1       -0.4915
     16 C          -4.5738   -2.1069    2.7318 C.3     1  UNL1        0.0790
     17 C          -2.9238    0.1711    0.3940 C.ar    1  UNL1        0.1621
     18 O          -4.0814    0.6963   -0.1263 O.3     1  UNL1       -0.4914
     19 C          -3.9714    1.8703   -0.9183 C.3     1  UNL1        0.0790
     20 C          -1.6367    0.5690    0.0107 C.ar    1  UNL1       -0.0085
     21 C           1.4572   -0.1403   -1.0016 C.ar    1  UNL1       -0.0201
     22 C           0.7378   -1.1536   -1.8565 C.3     1  UNL1       -0.0374
     23 H           3.8046   -2.1466   -1.9548 H       1  UNL1        0.0233
     24 H           5.1156   -1.0232   -1.5714 H       1  UNL1        0.0233
     25 H           4.8899   -1.5830   -3.2372 H       1  UNL1        0.0233
     26 H           4.0516    0.7321   -2.9908 H       1  UNL1        0.0326
     27 H           2.7454   -0.3442   -3.4180 H       1  UNL1        0.0326
     28 H           3.7150    2.5383    2.1245 H       1  UNL1        0.1437
     29 H           4.4738    2.7949    0.6428 H       1  UNL1        0.1437
     30 H           0.1946   -1.5028    2.0015 H       1  UNL1        0.0625
     31 H          -2.0287   -2.2148    2.6768 H       1  UNL1        0.0655
     32 H          -4.1742   -3.0931    2.4738 H       1  UNL1        0.0660
     33 H          -4.1429   -1.7370    3.6681 H       1  UNL1        0.0660
     34 H          -5.6522   -2.2153    2.8827 H       1  UNL1        0.0660
     35 H          -3.4708    1.6558   -1.8680 H       1  UNL1        0.0660
     36 H          -4.9843    2.2148   -1.1480 H       1  UNL1        0.0660
     37 H          -3.4625    2.6732   -0.3744 H       1  UNL1        0.0660
     38 H          -1.4933    1.3397   -0.7406 H       1  UNL1        0.0661
     39 H           1.4344   -1.8543   -2.3255 H       1  UNL1        0.0278
     40 H           0.1681   -0.6422   -2.6387 H       1  UNL1        0.0278
     41 H           0.0544   -1.7774   -1.2733 H       1  UNL1        0.0278
@<TRIPOS>BOND
     1     1     2    1
     2     2     3    1
     3     3     4   ar
     4     4     5   ar
     5     5     6    1
     6     5     7   ar
     7     7     8    1
     8     8     9    3
     9     7    10   ar
    10    10    11    1
    11    11    12   ar
    12    12    13   ar
    13    13    14   ar
    14    14    15    1
    15    15    16    1
    16    14    17   ar
    17    17    18    1
    18    18    19    1
    19    17    20   ar
    20    10    21   ar
    21    21    22    1
    22    21     3   ar
    23    20    11   ar
    24     1    23    1
    25     1    24    1
    26     1    25    1
    27     2    26    1
    28     2    27    1
    29     6    28    1
    30     6    29    1
    31    12    30    1
    32    13    31    1
    33    16    32    1
    34    16    33    1
    35    16    34    1
    36    19    35    1
    37    19    36    1
    38    19    37    1
    39    20    38    1
    40    22    39    1
    41    22    40    1
    42    22    41    1
