@<TRIPOS>MOLECULE
*****
 33 34 0 0 0
SMALL
GASTEIGER

@<TRIPOS>ATOM
      1 C           1.1871    3.2007   -0.5616 C.3     1  UNL1       -0.0638
      2 C           1.2328    2.6598   -1.9869 C.3     1  UNL1       -0.0352
      3 C           0.5459    1.3102   -2.2163 C.3     1  UNL1        0.0878
      4 S          -1.2192    1.2989   -1.8077 S.3     1  UNL1       -0.0954
      5 C          -0.9793    0.3661   -0.3473 C.2     1  UNL1        0.0980
      6 C          -1.8654    0.3970    0.6752 C.2     1  UNL1        0.1411
      7 C          -1.5747   -0.0711    1.9883 C.1     1  UNL1        0.1068
      8 N          -1.3391   -0.4658    3.0545 N.1     1  UNL1       -0.1906
      9 C          -3.1720    1.1029    0.5708 C.2     1  UNL1        0.2542
     10 N          -4.0210    0.6716   -0.4052 N.am    1  UNL1       -0.3247
     11 O          -3.5001    1.9892    1.3490 O.2     1  UNL1       -0.2696
     12 N           0.2761   -0.2558   -0.3800 N.am    1  UNL1       -0.2322
     13 C           0.6625   -1.4098    0.3797 C.ar    1  UNL1        0.0420
     14 C          -0.2379   -2.4728    0.5731 C.ar    1  UNL1       -0.0372
     15 C           0.1431   -3.6060    1.2977 C.ar    1  UNL1       -0.0247
     16 C           1.4261   -3.6866    1.8220 C.ar    1  UNL1        0.1235
     17 F           1.7909   -4.7752    2.5111 F       1  UNL1       -0.2055
     18 C           2.3383   -2.6586    1.6298 C.ar    1  UNL1       -0.0247
     19 C           1.9594   -1.5253    0.9049 C.ar    1  UNL1       -0.0372
     20 C           1.1628    0.2038   -1.3832 C.2     1  UNL1        0.2379
     21 O           2.2987   -0.2053   -1.6107 O.2     1  UNL1       -0.2737
     22 H           1.6361    2.4995    0.1483 H       1  UNL1        0.0230
     23 H           1.7518    4.1372   -0.5034 H       1  UNL1        0.0230
     24 H           0.1643    3.4163   -0.2397 H       1  UNL1        0.0230
     25 H           2.2877    2.5681   -2.2756 H       1  UNL1        0.0278
     26 H           0.7955    3.4079   -2.6600 H       1  UNL1        0.0278
     27 H           0.6391    1.0245   -3.2699 H       1  UNL1        0.0511
     28 H          -4.8863    1.1865   -0.5185 H       1  UNL1        0.1453
     29 H          -3.7464    0.0454   -1.1499 H       1  UNL1        0.1453
     30 H          -1.2345   -2.4555    0.1409 H       1  UNL1        0.0637
     31 H          -0.5496   -4.4274    1.4516 H       1  UNL1        0.0647
     32 H           3.3385   -2.7419    2.0430 H       1  UNL1        0.0647
     33 H           2.6888   -0.7285    0.7759 H       1  UNL1        0.0637
@<TRIPOS>BOND
     1     1     2    1
     2     2     3    1
     3     3     4    1
     4     4     5    1
     5     5     6    2
     6     6     7    1
     7     7     8    3
     8     6     9    1
     9     9    10   am
    10     9    11    2
    11     5    12    1
    12    12    13    1
    13    13    14   ar
    14    14    15   ar
    15    15    16   ar
    16    16    17    1
    17    16    18   ar
    18    18    19   ar
    19    12    20   am
    20    20    21    2
    21    20     3    1
    22    19    13   ar
    23     1    22    1
    24     1    23    1
    25     1    24    1
    26     2    25    1
    27     2    26    1
    28     3    27    1
    29    10    28    1
    30    10    29    1
    31    14    30    1
    32    15    31    1
    33    18    32    1
    34    19    33    1
