@<TRIPOS>MOLECULE
*****
 43 45 0 0 0
SMALL
GASTEIGER

@<TRIPOS>ATOM
      1 C          -1.5629   -3.3488   -1.1775 C.3     1  UNL1       -0.0649
      2 C          -2.5999   -2.6816   -0.2844 C.3     1  UNL1       -0.0489
      3 C          -2.0830   -2.4328    1.1301 C.3     1  UNL1        0.0103
      4 C          -0.9309   -1.4445    1.1791 C.2     1  UNL1        0.1650
      5 O           0.1975   -1.8178    1.5036 O.2     1  UNL1       -0.2920
      6 C          -1.1489   -0.0109    0.8006 C.ar    1  UNL1        0.0423
      7 C          -2.4194    0.5605    0.9736 C.ar    1  UNL1       -0.0040
      8 C          -2.6458    1.8849    0.6115 C.ar    1  UNL1        0.1629
      9 C          -1.6025    2.6590    0.1066 C.ar    1  UNL1        0.1639
     10 C          -0.3365    2.0999   -0.0748 C.ar    1  UNL1        0.0056
     11 C          -0.0849    0.7661    0.2736 C.ar    1  UNL1        0.0479
     12 N           1.1920    0.1699    0.1057 N.am    1  UNL1       -0.2807
     13 C           2.3551    0.7405   -0.3715 C.2     1  UNL1        0.2510
     14 O           2.4963    1.9049   -0.7305 O.2     1  UNL1       -0.2698
     15 C           3.5497   -0.1489   -0.4193 C.ar    1  UNL1        0.0721
     16 C           4.8240    0.4377   -0.3822 C.ar    1  UNL1       -0.0468
     17 C           5.9720   -0.3582   -0.4310 C.ar    1  UNL1       -0.0609
     18 C           5.8572   -1.7449   -0.5245 C.ar    1  UNL1       -0.0590
     19 C           4.5950   -2.3349   -0.5753 C.ar    1  UNL1       -0.0257
     20 C           3.4526   -1.5370   -0.5270 C.ar    1  UNL1        0.1355
     21 F           2.2584   -2.1422   -0.6051 F       1  UNL1       -0.2047
     22 O          -1.7502    3.9779   -0.2406 O.3     1  UNL1       -0.4849
     23 C          -2.9495    4.5343    0.3084 C.3     1  UNL1        0.1237
     24 C          -4.1220    3.5934    0.0883 C.3     1  UNL1        0.1237
     25 O          -3.9199    2.3595    0.7890 O.3     1  UNL1       -0.4849
     26 H          -1.2236   -4.2957   -0.7456 H       1  UNL1        0.0230
     27 H          -1.9938   -3.5605   -2.1613 H       1  UNL1        0.0230
     28 H          -0.6901   -2.7053   -1.3260 H       1  UNL1        0.0230
     29 H          -3.4808   -3.3316   -0.2261 H       1  UNL1        0.0267
     30 H          -2.9258   -1.7469   -0.7528 H       1  UNL1        0.0267
     31 H          -2.8875   -2.0930    1.7894 H       1  UNL1        0.0345
     32 H          -1.7301   -3.3777    1.5628 H       1  UNL1        0.0345
     33 H          -3.2499   -0.0017    1.3874 H       1  UNL1        0.0663
     34 H           0.4389    2.7402   -0.4825 H       1  UNL1        0.0674
     35 H           1.2542   -0.7973    0.4376 H       1  UNL1        0.1552
     36 H           4.9250    1.5196   -0.3126 H       1  UNL1        0.0626
     37 H           6.9549    0.1068   -0.3979 H       1  UNL1        0.0618
     38 H           6.7502   -2.3642   -0.5633 H       1  UNL1        0.0618
     39 H           4.4911   -3.4128   -0.6569 H       1  UNL1        0.0646
     40 H          -3.1316    5.4906   -0.1918 H       1  UNL1        0.0731
     41 H          -2.7868    4.7315    1.3753 H       1  UNL1        0.0731
     42 H          -5.0450    4.0427    0.4677 H       1  UNL1        0.0731
     43 H          -4.2627    3.3693   -0.9764 H       1  UNL1        0.0731
@<TRIPOS>BOND
     1     1     2    1
     2     2     3    1
     3     3     4    1
     4     4     5    2
     5     4     6    1
     6     6     7   ar
     7     7     8   ar
     8     8     9   ar
     9     9    10   ar
    10    10    11   ar
    11    11    12    1
    12    12    13   am
    13    13    14    2
    14    13    15    1
    15    15    16   ar
    16    16    17   ar
    17    17    18   ar
    18    18    19   ar
    19    19    20   ar
    20    20    21    1
    21     9    22    1
    22    22    23    1
    23    23    24    1
    24    24    25    1
    25    11     6   ar
    26    20    15   ar
    27    25     8    1
    28     1    26    1
    29     1    27    1
    30     1    28    1
    31     2    29    1
    32     2    30    1
    33     3    31    1
    34     3    32    1
    35     7    33    1
    36    10    34    1
    37    12    35    1
    38    16    36    1
    39    17    37    1
    40    18    38    1
    41    19    39    1
    42    23    40    1
    43    23    41    1
    44    24    42    1
    45    24    43    1
