@<TRIPOS>MOLECULE
*****
 39 41 0 0 0
SMALL
GASTEIGER

@<TRIPOS>ATOM
      1 C           5.7521    0.3988   -0.2244 C.3     1  UNL1       -0.0648
      2 C           4.5227    0.2262    0.6524 C.3     1  UNL1       -0.0476
      3 C           3.2395    0.5240   -0.1179 C.3     1  UNL1        0.0237
      4 C           2.0001    0.3570    0.7414 C.2     1  UNL1        0.2132
      5 O           2.0270    0.0149    1.9177 O.2     1  UNL1       -0.2758
      6 N           0.8360    0.6382    0.0531 N.am    1  UNL1       -0.3119
      7 C          -0.4736    0.4361    0.6584 C.3     1  UNL1        0.0288
      8 C          -1.5679    1.2854   -0.0307 C.3     1  UNL1       -0.0218
      9 C          -2.8725    1.1413    0.7796 C.3     1  UNL1       -0.0456
     10 C          -3.3151   -0.3338    0.8145 C.3     1  UNL1       -0.0402
     11 C          -3.5531   -0.8232   -0.6242 C.3     1  UNL1       -0.0473
     12 C          -2.2596   -0.6885   -1.4458 C.3     1  UNL1       -0.0402
     13 C          -1.8296    0.7873   -1.4663 C.3     1  UNL1       -0.0456
     14 C          -1.1530   -1.5322   -0.7909 C.3     1  UNL1       -0.0456
     15 C          -0.8988   -1.0526    0.6518 C.3     1  UNL1       -0.0218
     16 C          -2.2067   -1.1877    1.4566 C.3     1  UNL1       -0.0456
     17 H           5.8256    1.4246   -0.5995 H       1  UNL1        0.0230
     18 H           6.6593    0.1805    0.3475 H       1  UNL1        0.0230
     19 H           5.7201   -0.2798   -1.0828 H       1  UNL1        0.0230
     20 H           4.4964   -0.7989    1.0408 H       1  UNL1        0.0267
     21 H           4.6009    0.8918    1.5203 H       1  UNL1        0.0267
     22 H           3.1547   -0.1533   -0.9760 H       1  UNL1        0.0358
     23 H           3.2599    1.5538   -0.4937 H       1  UNL1        0.0358
     24 H           0.8965    0.7287   -0.9521 H       1  UNL1        0.1490
     25 H          -0.3831    0.7663    1.7023 H       1  UNL1        0.0504
     26 H          -1.2665    2.3391   -0.0593 H       1  UNL1        0.0319
     27 H          -3.6615    1.7580    0.3317 H       1  UNL1        0.0271
     28 H          -2.7225    1.5111    1.8013 H       1  UNL1        0.0271
     29 H          -4.2391   -0.4291    1.3955 H       1  UNL1        0.0301
     30 H          -4.3562   -0.2393   -1.0905 H       1  UNL1        0.0271
     31 H          -3.8843   -1.8689   -0.6149 H       1  UNL1        0.0271
     32 H          -2.4349   -1.0375   -2.4695 H       1  UNL1        0.0301
     33 H          -2.6145    1.3965   -1.9321 H       1  UNL1        0.0271
     34 H          -0.9355    0.9089   -2.0879 H       1  UNL1        0.0271
     35 H          -1.4476   -2.5891   -0.7833 H       1  UNL1        0.0271
     36 H          -0.2320   -1.4683   -1.3824 H       1  UNL1        0.0271
     37 H          -0.1230   -1.6767    1.1101 H       1  UNL1        0.0319
     38 H          -2.5172   -2.2393    1.4919 H       1  UNL1        0.0271
     39 H          -2.0431   -0.8703    2.4937 H       1  UNL1        0.0271
@<TRIPOS>BOND
     1     1     2    1
     2     2     3    1
     3     3     4    1
     4     4     5    2
     5     4     6   am
     6     6     7    1
     7     7     8    1
     8     8     9    1
     9     9    10    1
    10    10    11    1
    11    11    12    1
    12    12    13    1
    13    12    14    1
    14    14    15    1
    15    15    16    1
    16    15     7    1
    17    13     8    1
    18    16    10    1
    19     1    17    1
    20     1    18    1
    21     1    19    1
    22     2    20    1
    23     2    21    1
    24     3    22    1
    25     3    23    1
    26     6    24    1
    27     7    25    1
    28     8    26    1
    29     9    27    1
    30     9    28    1
    31    10    29    1
    32    11    30    1
    33    11    31    1
    34    12    32    1
    35    13    33    1
    36    13    34    1
    37    14    35    1
    38    14    36    1
    39    15    37    1
    40    16    38    1
    41    16    39    1
