@<TRIPOS>MOLECULE
*****
 27 28 0 0 0
SMALL
GASTEIGER

@<TRIPOS>ATOM
      1 C          -5.7064   -0.1698   -0.3334 C.3     1  UNL1       -0.0648
      2 C          -4.2944   -0.6616   -0.0601 C.3     1  UNL1       -0.0476
      3 C          -3.2574    0.4174   -0.3613 C.3     1  UNL1        0.0241
      4 C          -1.8333   -0.0508   -0.0953 C.2     1  UNL1        0.2187
      5 O          -1.5853   -1.1773    0.3152 O.2     1  UNL1       -0.2754
      6 N          -0.9236    0.9454   -0.3769 N.am    1  UNL1       -0.2633
      7 C           0.4419    0.8769   -0.2545 C.ar    1  UNL1        0.1881
      8 N           1.2151    1.8976   -0.5545 N.ar    1  UNL1       -0.1252
      9 N           2.5519    1.6102   -0.3578 N.ar    1  UNL1       -0.1364
     10 C           2.7303    0.3802    0.0838 C.ar    1  UNL1        0.1686
     11 C           4.0252   -0.1670    0.3679 C.ar    1  UNL1        0.1615
     12 C           5.2615    0.4503    0.2420 C.ar    1  UNL1       -0.0138
     13 C           6.2465   -0.4855    0.6392 C.ar    1  UNL1       -0.0232
     14 C           5.5648   -1.6248    0.9871 C.ar    1  UNL1        0.0927
     15 O           4.2299   -1.4463    0.8286 O.2     1  UNL1       -0.4608
     16 S           1.2762   -0.5040    0.2870 S.2     1  UNL1       -0.0274
     17 H          -5.9467    0.6984    0.2886 H       1  UNL1        0.0230
     18 H          -5.8260    0.1156   -1.3834 H       1  UNL1        0.0230
     19 H          -6.4322   -0.9582   -0.1109 H       1  UNL1        0.0230
     20 H          -4.0969   -1.5510   -0.6703 H       1  UNL1        0.0267
     21 H          -4.2166   -0.9728    0.9885 H       1  UNL1        0.0267
     22 H          -3.4497    1.3000    0.2605 H       1  UNL1        0.0358
     23 H          -3.3289    0.7164   -1.4139 H       1  UNL1        0.0358
     24 H          -1.2513    1.8408   -0.7126 H       1  UNL1        0.1568
     25 H           5.4215    1.4645   -0.0999 H       1  UNL1        0.0656
     26 H           7.3181   -0.3461    0.6680 H       1  UNL1        0.0649
     27 H           5.8661   -2.5985    1.3483 H       1  UNL1        0.1029
@<TRIPOS>BOND
     1     1     2    1
     2     2     3    1
     3     3     4    1
     4     4     5    2
     5     4     6   am
     6     6     7    1
     7     7     8   ar
     8     8     9   ar
     9     9    10   ar
    10    10    11    1
    11    11    12   ar
    12    12    13   ar
    13    13    14   ar
    14    14    15   ar
    15    10    16   ar
    16    16     7   ar
    17    15    11   ar
    18     1    17    1
    19     1    18    1
    20     1    19    1
    21     2    20    1
    22     2    21    1
    23     3    22    1
    24     3    23    1
    25     6    24    1
    26    12    25    1
    27    13    26    1
    28    14    27    1
