@<TRIPOS>MOLECULE
*****
 36 37 0 0 0
SMALL
GASTEIGER

@<TRIPOS>ATOM
      1 C           4.5043   -0.9039   -0.4596 C.3     1  UNL1       -0.0652
      2 C           3.8745    0.2293   -1.2501 C.3     1  UNL1       -0.0540
      3 C           2.7658    0.9874   -0.5097 C.3     1  UNL1       -0.0310
      4 C           1.5168    0.1381   -0.1743 C.3     1  UNL1        0.0501
      5 C           1.5784   -0.4188    1.2552 C.3     1  UNL1       -0.0426
      6 N           0.3165    0.9714   -0.3784 N.ar    1  UNL1       -0.2635
      7 N           0.0719    2.0421    0.5258 N.ar    1  UNL1       -0.2611
      8 C          -1.2824    2.1554    0.7906 C.ar    1  UNL1        0.2742
      9 O          -1.8491    3.0828    1.3360 O.2     1  UNL1       -0.2657
     10 C          -1.9169    0.9540    0.2556 C.ar    1  UNL1        0.0872
     11 C          -3.2121    0.4747    0.3396 C.ar    1  UNL1       -0.0328
     12 C          -4.2927    1.2232    1.0481 C.3     1  UNL1       -0.0388
     13 C          -3.4429   -0.7601   -0.2736 C.ar    1  UNL1       -0.0369
     14 C          -2.3872   -1.4302   -0.9147 C.ar    1  UNL1        0.0409
     15 C          -2.6394   -2.7586   -1.5661 C.3     1  UNL1       -0.0223
     16 N          -1.1218   -0.9392   -0.9857 N.ar    1  UNL1       -0.2327
     17 C          -0.9143    0.2562   -0.4066 C.ar    1  UNL1        0.1611
     18 H           3.8030   -1.7319   -0.3233 H       1  UNL1        0.0230
     19 H           4.8422   -0.5610    0.5231 H       1  UNL1        0.0230
     20 H           5.3731   -1.2979   -0.9971 H       1  UNL1        0.0230
     21 H           4.6619    0.9470   -1.5110 H       1  UNL1        0.0263
     22 H           3.4845   -0.1628   -2.1969 H       1  UNL1        0.0263
     23 H           2.4771    1.8236   -1.1611 H       1  UNL1        0.0286
     24 H           3.1752    1.4432    0.4006 H       1  UNL1        0.0286
     25 H           1.4807   -0.7030   -0.8785 H       1  UNL1        0.0542
     26 H           2.4544   -1.0555    1.4010 H       1  UNL1        0.0250
     27 H           1.6279    0.3834    1.9997 H       1  UNL1        0.0250
     28 H           0.6958   -1.0253    1.4843 H       1  UNL1        0.0250
     29 H           0.6181    2.8910    0.4273 H       1  UNL1        0.1902
     30 H          -4.0329    1.3617    2.1024 H       1  UNL1        0.0278
     31 H          -4.4492    2.2005    0.5806 H       1  UNL1        0.0278
     32 H          -5.2437    0.6814    1.0094 H       1  UNL1        0.0278
     33 H          -4.4328   -1.2089   -0.2541 H       1  UNL1        0.0638
     34 H          -2.9915   -3.4821   -0.8243 H       1  UNL1        0.0292
     35 H          -1.7226   -3.1514   -2.0174 H       1  UNL1        0.0292
     36 H          -3.3910   -2.6557   -2.3549 H       1  UNL1        0.0292
@<TRIPOS>BOND
     1     1     2    1
     2     2     3    1
     3     3     4    1
     4     4     5    1
     5     4     6    1
     6     6     7   ar
     7     7     8   ar
     8     8     9    2
     9     8    10   ar
    10    10    11   ar
    11    11    12    1
    12    11    13   ar
    13    13    14   ar
    14    14    15    1
    15    14    16   ar
    16    16    17   ar
    17    17     6   ar
    18    17    10   ar
    19     1    18    1
    20     1    19    1
    21     1    20    1
    22     2    21    1
    23     2    22    1
    24     3    23    1
    25     3    24    1
    26     4    25    1
    27     5    26    1
    28     5    27    1
    29     5    28    1
    30     7    29    1
    31    12    30    1
    32    12    31    1
    33    12    32    1
    34    13    33    1
    35    15    34    1
    36    15    35    1
    37    15    36    1
