@<TRIPOS>MOLECULE
*****
 27 27 0 0 0
SMALL
GASTEIGER

@<TRIPOS>ATOM
      1 C           3.2452   -0.9640   -0.1134 C.3     1  UNL1       -0.0652
      2 C           2.6236    0.2730    0.5189 C.3     1  UNL1       -0.0540
      3 C           1.1311    0.1093    0.8305 C.3     1  UNL1       -0.0310
      4 C           0.1856    0.6512   -0.2598 C.3     1  UNL1        0.0499
      5 C           0.2975   -0.0552   -1.6091 C.3     1  UNL1       -0.0426
      6 N          -1.2006    0.6413    0.2209 N.ar    1  UNL1       -0.2677
      7 N          -1.9937    1.7429   -0.1241 N.ar    1  UNL1       -0.2618
      8 C          -3.3048    1.4128    0.1583 C.ar    1  UNL1        0.2665
      9 O          -4.2671    2.1567    0.2004 O.2     1  UNL1       -0.2664
     10 C          -3.3299   -0.0305    0.4498 C.ar    1  UNL1        0.0432
     11 C          -2.0466   -0.4311    0.4736 C.ar    1  UNL1        0.1164
     12 N          -1.6702   -1.7240    0.7107 N.pl3   1  UNL1       -0.3433
     13 H           2.7919   -1.2053   -1.0772 H       1  UNL1        0.0230
     14 H           3.1352   -1.8339    0.5422 H       1  UNL1        0.0230
     15 H           4.3154   -0.8026   -0.2783 H       1  UNL1        0.0230
     16 H           3.1532    0.4606    1.4613 H       1  UNL1        0.0263
     17 H           2.7974    1.1487   -0.1163 H       1  UNL1        0.0263
     18 H           0.9140   -0.9379    1.0652 H       1  UNL1        0.0286
     19 H           0.9232    0.6698    1.7526 H       1  UNL1        0.0286
     20 H           0.4699    1.6999   -0.4259 H       1  UNL1        0.0542
     21 H          -0.4850    0.2845   -2.2969 H       1  UNL1        0.0250
     22 H           1.2593    0.1623   -2.0834 H       1  UNL1        0.0250
     23 H           0.2063   -1.1411   -1.5128 H       1  UNL1        0.0250
     24 H          -1.6852    2.6810    0.1008 H       1  UNL1        0.1902
     25 H          -4.2283   -0.5893    0.6245 H       1  UNL1        0.0706
     26 H          -2.4165   -2.3971    0.5635 H       1  UNL1        0.1437
     27 H          -0.8208   -1.9820    0.2241 H       1  UNL1        0.1437
@<TRIPOS>BOND
     1     1     2    1
     2     2     3    1
     3     3     4    1
     4     4     5    1
     5     4     6    1
     6     6     7   ar
     7     7     8   ar
     8     8     9    2
     9     8    10   ar
    10    10    11   ar
    11    11    12    1
    12    11     6   ar
    13     1    13    1
    14     1    14    1
    15     1    15    1
    16     2    16    1
    17     2    17    1
    18     3    18    1
    19     3    19    1
    20     4    20    1
    21     5    21    1
    22     5    22    1
    23     5    23    1
    24     7    24    1
    25    10    25    1
    26    12    26    1
    27    12    27    1
