@<TRIPOS>MOLECULE
*****
 27 27 0 0 0
SMALL
GASTEIGER

@<TRIPOS>ATOM
      1 C          -2.5281    3.0589    2.0667 C.3     1  UNL1       -0.0651
      2 C          -2.7234    1.6402    2.5783 C.3     1  UNL1       -0.0501
      3 C          -1.6918    0.6512    2.0361 C.3     1  UNL1        0.0090
      4 C          -1.8051    0.4214    0.5305 C.3     1  UNL1        0.1794
      5 N          -0.8690   -0.5910    0.0839 N.ar    1  UNL1       -0.0493
      6 C           0.3908   -0.3048   -0.3592 C.ar    1  UNL1        0.2655
      7 C           0.9305   -1.5171   -0.7526 C.ar    1  UNL1        0.3233
      8 N           2.1179   -1.8657   -1.3041 N.2     1  UNL1       -0.1840
      9 C           2.7200   -0.9615   -2.0171 C.2     1  UNL1        0.1503
     10 O           2.4454    0.2100   -2.3240 O.co2   1  UNL1       -0.8334
     11 O           3.9142   -1.2356   -2.6026 O.2     1  UNL1       -0.4903
     12 C           4.4486   -2.5493   -2.4221 C.3     1  UNL1        0.0793
     13 O          -0.0340   -2.4806   -0.4664 O.2     1  UNL1       -0.2798
     14 N          -1.1824   -1.8647    0.0557 N.ar    1  UNL1        0.2028
     15 H          -2.7010    3.1241    0.9885 H       1  UNL1        0.0230
     16 H          -3.2355    3.7354    2.5567 H       1  UNL1        0.0230
     17 H          -1.5152    3.4157    2.2773 H       1  UNL1        0.0230
     18 H          -2.6536    1.6522    3.6727 H       1  UNL1        0.0265
     19 H          -3.7350    1.2991    2.3299 H       1  UNL1        0.0265
     20 H          -0.6800    0.9948    2.2829 H       1  UNL1        0.0327
     21 H          -1.8243   -0.3071    2.5530 H       1  UNL1        0.0327
     22 H          -1.6100    1.3450   -0.0258 H       1  UNL1        0.1055
     23 H          -2.8190    0.0944    0.2692 H       1  UNL1        0.1055
     24 H           0.8278    0.6810   -0.4046 H       1  UNL1        0.1460
     25 H           5.4045   -2.5999   -2.9508 H       1  UNL1        0.0660
     26 H           4.6313   -2.7475   -1.3614 H       1  UNL1        0.0660
     27 H           3.7765   -3.2986   -2.8516 H       1  UNL1        0.0660
@<TRIPOS>UNITY_ATOM_ATTR
5 1
charge 1
10 1
charge -1
@<TRIPOS>BOND
     1     1     2    1
     2     2     3    1
     3     3     4    1
     4     4     5    1
     5     5     6   ar
     6     6     7   ar
     7     7     8    1
     8     8     9    2
     9     9    10    1
    10     9    11    1
    11    11    12    1
    12     7    13   ar
    13    13    14   ar
    14    14     5   ar
    15     1    15    1
    16     1    16    1
    17     1    17    1
    18     2    18    1
    19     2    19    1
    20     3    20    1
    21     3    21    1
    22     4    22    1
    23     4    23    1
    24     6    24    1
    25    12    25    1
    26    12    26    1
    27    12    27    1
