@<TRIPOS>MOLECULE
*****
 29 30 0 0 0
SMALL
GASTEIGER

@<TRIPOS>ATOM
      1 C          -4.3038   -0.3712   -0.1513 C.3     1  UNL1       -0.0650
      2 C          -2.8100   -0.4417   -0.4269 C.3     1  UNL1       -0.0518
      3 C          -2.0134    0.3559    0.6092 C.3     1  UNL1       -0.0248
      4 C          -0.5240    0.3010    0.3476 C.ar    1  UNL1       -0.0075
      5 C           0.1098    1.2777   -0.4163 C.ar    1  UNL1        0.0435
      6 C          -0.6220    2.4519   -1.0019 C.3     1  UNL1       -0.0220
      7 N           1.4367    1.2506   -0.6798 N.ar    1  UNL1       -0.2504
      8 C           2.2190    0.2546   -0.2156 C.ar    1  UNL1        0.0866
      9 C           3.5947    0.2334   -0.4949 C.ar    1  UNL1        0.0438
     10 BR          4.3974    1.6149   -1.5378 Br      1  UNL1       -0.0481
     11 C           4.4403   -0.7810   -0.0351 C.ar    1  UNL1       -0.0457
     12 C           3.9165   -1.8116    0.7261 C.ar    1  UNL1       -0.0600
     13 C           2.5551   -1.8165    1.0192 C.ar    1  UNL1       -0.0511
     14 C           1.6843   -0.7907    0.5582 C.ar    1  UNL1        0.0201
     15 C           0.2897   -0.7428    0.8259 C.ar    1  UNL1        0.0550
     16 CL         -0.4382   -2.0166    1.7742 Cl      1  UNL1       -0.0825
     17 H          -4.8553   -0.9455   -0.9022 H       1  UNL1        0.0230
     18 H          -4.5405   -0.7849    0.8342 H       1  UNL1        0.0230
     19 H          -4.6606    0.6632   -0.1855 H       1  UNL1        0.0230
     20 H          -2.6138   -0.0567   -1.4345 H       1  UNL1        0.0266
     21 H          -2.4972   -1.4922   -0.4273 H       1  UNL1        0.0266
     22 H          -2.3584    1.3966    0.6172 H       1  UNL1        0.0314
     23 H          -2.2358   -0.0014    1.6217 H       1  UNL1        0.0314
     24 H          -1.0019    3.0998   -0.2062 H       1  UNL1        0.0293
     25 H          -1.4506    2.1184   -1.6333 H       1  UNL1        0.0293
     26 H           0.0467    3.0528   -1.6280 H       1  UNL1        0.0293
     27 H           5.5017   -0.7689   -0.2687 H       1  UNL1        0.0629
     28 H           4.5593   -2.6084    1.0916 H       1  UNL1        0.0618
     29 H           2.1744   -2.6405    1.6202 H       1  UNL1        0.0625
@<TRIPOS>BOND
     1     1     2    1
     2     2     3    1
     3     3     4    1
     4     4     5   ar
     5     5     6    1
     6     5     7   ar
     7     7     8   ar
     8     8     9   ar
     9     9    10    1
    10     9    11   ar
    11    11    12   ar
    12    12    13   ar
    13    13    14   ar
    14    14    15   ar
    15    15    16    1
    16    15     4   ar
    17    14     8   ar
    18     1    17    1
    19     1    18    1
    20     1    19    1
    21     2    20    1
    22     2    21    1
    23     3    22    1
    24     3    23    1
    25     6    24    1
    26     6    25    1
    27     6    26    1
    28    11    27    1
    29    12    28    1
    30    13    29    1
