@<TRIPOS>MOLECULE
*****
 31 32 0 0 0
SMALL
GASTEIGER

@<TRIPOS>ATOM
      1 C          -6.0532    1.0497    0.2523 C.3     1  UNL1       -0.0649
      2 C          -4.5882    0.8889   -0.1217 C.3     1  UNL1       -0.0490
      3 C          -3.8461    0.0125    0.8864 C.3     1  UNL1        0.0079
      4 C          -2.4202   -0.1488    0.5164 C.ar    1  UNL1        0.1380
      5 C          -1.7133   -1.1004   -0.1739 C.ar    1  UNL1        0.0127
      6 C          -0.3751   -0.6325   -0.1609 C.ar    1  UNL1        0.1678
      7 C           0.7937   -1.2736   -0.7661 C.2     1  UNL1        0.2661
      8 O           0.7144   -2.3171   -1.4084 O.2     1  UNL1       -0.2684
      9 N           1.9776   -0.6041   -0.5627 N.am    1  UNL1       -0.3029
     10 C           3.1814   -0.9845   -1.2530 C.3     1  UNL1        0.0701
     11 C           4.3306   -0.3029   -0.6148 C.ar    1  UNL1        0.1218
     12 C           5.3609   -0.7356    0.1944 C.ar    1  UNL1       -0.0192
     13 C           6.1447    0.4061    0.4883 C.ar    1  UNL1       -0.0236
     14 C           5.5432    1.4609   -0.1567 C.ar    1  UNL1        0.0921
     15 O           4.4405    1.0415   -0.8287 O.2     1  UNL1       -0.4662
     16 N          -0.2868    0.5367    0.4995 N.ar    1  UNL1       -0.0734
     17 O          -1.5706    0.8318    0.9219 O.2     1  UNL1       -0.3589
     18 H          -6.5655    1.6777   -0.4833 H       1  UNL1        0.0230
     19 H          -6.1577    1.5225    1.2341 H       1  UNL1        0.0230
     20 H          -6.5592    0.0794    0.2818 H       1  UNL1        0.0230
     21 H          -4.1203    1.8796   -0.1763 H       1  UNL1        0.0267
     22 H          -4.5192    0.4511   -1.1251 H       1  UNL1        0.0267
     23 H          -4.3207   -0.9748    0.9408 H       1  UNL1        0.0344
     24 H          -3.9166    0.4526    1.8886 H       1  UNL1        0.0344
     25 H          -2.0900   -2.0050   -0.6280 H       1  UNL1        0.0676
     26 H           1.9167    0.3252   -0.1569 H       1  UNL1        0.1495
     27 H           3.2950   -2.0732   -1.2174 H       1  UNL1        0.0543
     28 H           3.0833   -0.6865   -2.3022 H       1  UNL1        0.0543
     29 H           5.5217   -1.7501    0.5323 H       1  UNL1        0.0652
     30 H           7.0363    0.4563    1.0973 H       1  UNL1        0.0649
     31 H           5.7628    2.5169   -0.2324 H       1  UNL1        0.1029
@<TRIPOS>BOND
     1     1     2    1
     2     2     3    1
     3     3     4    1
     4     4     5   ar
     5     5     6   ar
     6     6     7    1
     7     7     8    2
     8     7     9   am
     9     9    10    1
    10    10    11    1
    11    11    12   ar
    12    12    13   ar
    13    13    14   ar
    14    14    15   ar
    15     6    16   ar
    16    16    17   ar
    17    17     4   ar
    18    15    11   ar
    19     1    18    1
    20     1    19    1
    21     1    20    1
    22     2    21    1
    23     2    22    1
    24     3    23    1
    25     3    24    1
    26     5    25    1
    27     9    26    1
    28    10    27    1
    29    10    28    1
    30    12    29    1
    31    13    30    1
    32    14    31    1
