@<TRIPOS>MOLECULE
*****
 36 42 0 0 0
SMALL
GASTEIGER

@<TRIPOS>ATOM
      1 SI          5.5662    0.2670    1.0971 Si      1  UNL1        0.0000
      2 C           6.8239   -0.4386   -0.1013 C.2     1  UNL1        0.0000
      3 C           6.2182   -0.9853   -1.1696 C.2     1  UNL1        0.0000
      4 C           4.7628   -0.9146   -1.1672 C.2     1  UNL1        0.0000
      5 C           4.2009   -0.3107   -0.0960 C.2     1  UNL1        0.0000
      6 C           2.8084   -0.1138    0.1463 C.ar    1  UNL1        0.0000
      7 C           2.1693    0.4980    1.2279 C.ar    1  UNL1        0.0000
      8 C           0.7716    0.4833    1.0759 C.ar    1  UNL1        0.0000
      9 C          -0.2108    1.0132    1.9741 C.ar    1  UNL1        0.0000
     10 N           0.1501    1.6061    3.1096 N.ar    1  UNL1        0.0000
     11 S          -1.3290    2.0460    3.7962 S.2     1  UNL1        0.0000
     12 N          -2.4005    1.4723    2.6331 N.ar    1  UNL1        0.0000
     13 C          -1.6188    0.9365    1.7057 C.ar    1  UNL1        0.0000
     14 C          -2.1173    0.3194    0.5130 C.ar    1  UNL1        0.0000
     15 C          -1.1811   -0.1911   -0.3534 C.ar    1  UNL1        0.0000
     16 N          -1.8332   -0.7352   -1.4239 N.ar    1  UNL1        0.0000
     17 C          -3.2034   -0.5812   -1.2596 C.ar    1  UNL1        0.0000
     18 C          -4.2602   -0.9809   -2.0977 C.ar    1  UNL1        0.0000
     19 C          -5.5851   -0.7143   -1.7198 C.ar    1  UNL1        0.0000
     20 C          -5.7855   -0.0449   -0.4922 C.ar    1  UNL1        0.0000
     21 N          -6.9839    0.2907    0.0252 N.ar    1  UNL1        0.0000
     22 S          -6.6769    1.0585    1.4812 S.2     1  UNL1        0.0000
     23 N          -5.0084    0.9966    1.5149 N.ar    1  UNL1        0.0000
     24 C          -4.7032    0.3767    0.3890 C.ar    1  UNL1        0.0000
     25 C          -3.3672    0.0811   -0.0419 C.ar    1  UNL1        0.0000
     26 C           0.3273   -0.1089   -0.0658 C.ar    1  UNL1        0.0000
     27 S           1.6045   -0.6738   -1.0032 S.2     1  UNL1        0.0000
     28 H           5.5475   -0.4670    2.3873 H       1  UNL1        0.0000
     29 H           5.6530    1.7456    1.1953 H       1  UNL1        0.0000
     30 H           7.8842   -0.3866    0.0891 H       1  UNL1        0.0000
     31 H           6.7495   -1.4526   -1.9901 H       1  UNL1        0.0000
     32 H           4.2199   -1.3390   -2.0029 H       1  UNL1        0.0000
     33 H           2.6818    0.9306    2.0787 H       1  UNL1        0.0000
     34 H          -1.3874   -1.1815   -2.2145 H       1  UNL1        0.0000
     35 H          -4.0623   -1.4946   -3.0359 H       1  UNL1        0.0000
     36 H          -6.4251   -1.0070   -2.3394 H       1  UNL1        0.0000
@<TRIPOS>BOND
     1     1     2    1
     2     2     3    2
     3     3     4    1
     4     4     5    2
     5     5     6    1
     6     6     7   ar
     7     7     8   ar
     8     8     9   ar
     9     9    10   ar
    10    10    11   ar
    11    11    12   ar
    12    12    13   ar
    13    13    14   ar
    14    14    15   ar
    15    15    16   ar
    16    16    17   ar
    17    17    18   ar
    18    18    19   ar
    19    19    20   ar
    20    20    21   ar
    21    21    22   ar
    22    22    23   ar
    23    23    24   ar
    24    24    25   ar
    25    15    26   ar
    26    26    27   ar
    27     5     1    1
    28    27     6   ar
    29    26     8   ar
    30    13     9   ar
    31    25    14   ar
    32    25    17   ar
    33    24    20   ar
    34     1    28    1
    35     1    29    1
    36     2    30    1
    37     3    31    1
    38     4    32    1
    39     7    33    1
    40    16    34    1
    41    18    35    1
    42    19    36    1
