@<TRIPOS>MOLECULE
*****
 32 32 0 0 0
SMALL
GASTEIGER

@<TRIPOS>ATOM
      1 C          -4.5385   -0.1621   -0.6972 C.3     1  UNL1       -0.0650
      2 C          -4.0398    1.2702   -0.5657 C.3     1  UNL1       -0.0519
      3 C          -3.1320    1.4834    0.6493 C.3     1  UNL1       -0.0279
      4 C          -1.8057    0.7695    0.5497 C.ar    1  UNL1       -0.0473
      5 C          -0.8121    1.2324   -0.3224 C.ar    1  UNL1       -0.0579
      6 C           0.4168    0.5710   -0.4220 C.ar    1  UNL1       -0.0510
      7 C           0.6664   -0.5688    0.3494 C.ar    1  UNL1        0.0174
      8 C           1.9579   -1.3181    0.2907 C.2     1  UNL1        0.1637
      9 O           2.2247   -2.1355    1.1710 O.2     1  UNL1       -0.2920
     10 C           2.9357   -1.0613   -0.8381 C.3     1  UNL1        0.0205
     11 C           3.9788   -0.0409   -0.4175 C.3     1  UNL1        0.0518
     12 C           5.0194   -0.6804    0.4572 C.2     1  UNL1        0.3051
     13 O           5.8019   -1.5536    0.1226 O.2     1  UNL1       -0.2510
     14 O           5.0207   -0.1853    1.7076 O.3     1  UNL1       -0.4806
     15 C          -0.3228   -1.0279    1.2287 C.ar    1  UNL1       -0.0510
     16 C          -1.5493   -0.3660    1.3264 C.ar    1  UNL1       -0.0579
     17 H          -5.0549   -0.4834    0.2130 H       1  UNL1        0.0230
     18 H          -3.7160   -0.8568   -0.8922 H       1  UNL1        0.0230
     19 H          -5.2436   -0.2390   -1.5311 H       1  UNL1        0.0230
     20 H          -3.5248    1.5601   -1.4890 H       1  UNL1        0.0266
     21 H          -4.9097    1.9308   -0.4678 H       1  UNL1        0.0266
     22 H          -3.6578    1.1779    1.5628 H       1  UNL1        0.0313
     23 H          -2.9345    2.5569    0.7659 H       1  UNL1        0.0313
     24 H          -0.9892    2.1189   -0.9287 H       1  UNL1        0.0620
     25 H           1.1599    0.9789   -1.0996 H       1  UNL1        0.0625
     26 H           3.3908   -2.0217   -1.1099 H       1  UNL1        0.0350
     27 H           2.4015   -0.7272   -1.7327 H       1  UNL1        0.0350
     28 H           4.4990    0.3609   -1.2943 H       1  UNL1        0.0382
     29 H           3.5274    0.8106    0.1039 H       1  UNL1        0.0382
     30 H           5.6760   -0.7385    2.1826 H       1  UNL1        0.2951
     31 H          -0.1442   -1.9082    1.8441 H       1  UNL1        0.0625
     32 H          -2.3020   -0.7467    2.0138 H       1  UNL1        0.0620
@<TRIPOS>BOND
     1     1     2    1
     2     2     3    1
     3     3     4    1
     4     4     5   ar
     5     5     6   ar
     6     6     7   ar
     7     7     8    1
     8     8     9    2
     9     8    10    1
    10    10    11    1
    11    11    12    1
    12    12    13    2
    13    12    14    1
    14     7    15   ar
    15    15    16   ar
    16    16     4   ar
    17     1    17    1
    18     1    18    1
    19     1    19    1
    20     2    20    1
    21     2    21    1
    22     3    22    1
    23     3    23    1
    24     5    24    1
    25     6    25    1
    26    10    26    1
    27    10    27    1
    28    11    28    1
    29    11    29    1
    30    14    30    1
    31    15    31    1
    32    16    32    1
