@<TRIPOS>MOLECULE
*****
 28 28 0 0 0
SMALL
GASTEIGER

@<TRIPOS>ATOM
      1 C          -4.9258    0.0285   -0.6506 C.3     1  UNL1       -0.0650
      2 C          -3.4191   -0.1453   -0.7576 C.3     1  UNL1       -0.0519
      3 C          -2.7290    0.1312    0.5786 C.3     1  UNL1       -0.0279
      4 C          -1.2339   -0.0395    0.4794 C.ar    1  UNL1       -0.0471
      5 C          -0.4162    1.0380    0.1173 C.ar    1  UNL1       -0.0551
      6 C           0.9701    0.8789    0.0082 C.ar    1  UNL1       -0.0197
      7 C           1.5546   -0.3629    0.2561 C.ar    1  UNL1        0.1213
      8 O           2.8882   -0.6557    0.1858 O.3     1  UNL1       -0.4808
      9 C           3.7645    0.4064   -0.1680 C.3     1  UNL1        0.1857
     10 C           5.2001   -0.0840   -0.1967 C.2     1  UNL1        0.3427
     11 O           5.6221   -1.2043    0.0361 O.2     1  UNL1       -0.2472
     12 O           6.0639    0.9023   -0.5306 O.3     1  UNL1       -0.4783
     13 C           0.7405   -1.4404    0.6108 C.ar    1  UNL1       -0.0197
     14 C          -0.6431   -1.2842    0.7202 C.ar    1  UNL1       -0.0551
     15 H          -5.1826    1.0502   -0.3532 H       1  UNL1        0.0230
     16 H          -5.3488   -0.6613    0.0867 H       1  UNL1        0.0230
     17 H          -5.4001   -0.1736   -1.6160 H       1  UNL1        0.0230
     18 H          -3.0335    0.5320   -1.5294 H       1  UNL1        0.0266
     19 H          -3.1984   -1.1660   -1.0929 H       1  UNL1        0.0266
     20 H          -3.1213   -0.5399    1.3533 H       1  UNL1        0.0313
     21 H          -2.9570    1.1493    0.9190 H       1  UNL1        0.0313
     22 H          -0.8553    2.0129   -0.0843 H       1  UNL1        0.0621
     23 H           1.5580    1.7456   -0.2735 H       1  UNL1        0.0654
     24 H           3.7063    1.2064    0.5787 H       1  UNL1        0.0815
     25 H           3.5236    0.7737   -1.1721 H       1  UNL1        0.0815
     26 H           6.9374    0.4559   -0.5114 H       1  UNL1        0.2952
     27 H           1.1885   -2.4127    0.8026 H       1  UNL1        0.0654
     28 H          -1.2538   -2.1414    0.9936 H       1  UNL1        0.0621
@<TRIPOS>BOND
     1     1     2    1
     2     2     3    1
     3     3     4    1
     4     4     5   ar
     5     5     6   ar
     6     6     7   ar
     7     7     8    1
     8     8     9    1
     9     9    10    1
    10    10    11    2
    11    10    12    1
    12     7    13   ar
    13    13    14   ar
    14    14     4   ar
    15     1    15    1
    16     1    16    1
    17     1    17    1
    18     2    18    1
    19     2    19    1
    20     3    20    1
    21     3    21    1
    22     5    22    1
    23     6    23    1
    24     9    24    1
    25     9    25    1
    26    12    26    1
    27    13    27    1
    28    14    28    1
