@<TRIPOS>MOLECULE
*****
 38 39 0 0 0
SMALL
GASTEIGER

@<TRIPOS>ATOM
      1 C           1.9196    2.0705    4.0389 C.3     1  UNL1       -0.0649
      2 C           1.0875    1.0928    3.2241 C.3     1  UNL1       -0.0505
      3 C           1.8088    0.6818    1.9368 C.3     1  UNL1       -0.0103
      4 C           0.9667   -0.2579    1.1033 C.ar    1  UNL1        0.0472
      5 N           0.7971   -1.4799    1.6710 N.ar    1  UNL1       -0.2357
      6 C           0.0584   -2.4068    1.0427 C.ar    1  UNL1        0.1346
      7 N          -0.0062   -3.6306    1.7034 N.pl3   1  UNL1       -0.3421
      8 C          -0.5427   -2.1700   -0.1875 C.ar    1  UNL1        0.0992
      9 C          -1.3139   -3.2077   -0.8082 C.1     1  UNL1        0.1032
     10 N          -1.9554   -4.0421   -1.2992 N.1     1  UNL1       -0.1907
     11 C          -0.3803   -0.9058   -0.7974 C.ar    1  UNL1        0.0091
     12 C          -1.0193   -0.6328   -2.0973 C.ar    1  UNL1        0.0019
     13 C          -0.4139   -1.0069   -3.3030 C.ar    1  UNL1       -0.0511
     14 C          -1.0487   -0.7377   -4.5135 C.ar    1  UNL1       -0.0430
     15 C          -2.2752   -0.0956   -4.4843 C.ar    1  UNL1        0.0276
     16 N          -2.8938    0.2863   -3.3472 N.ar    1  UNL1       -0.2627
     17 C          -2.2589    0.0018   -2.1863 C.ar    1  UNL1        0.0353
     18 C           0.4080    0.0791   -0.1412 C.ar    1  UNL1       -0.0172
     19 C           0.6345    1.4428   -0.7679 C.3     1  UNL1       -0.0282
     20 C          -0.2886    2.5140   -0.2047 C.3     1  UNL1       -0.0612
     21 H           1.3901    2.3461    4.9562 H       1  UNL1        0.0230
     22 H           2.8803    1.6278    4.3207 H       1  UNL1        0.0230
     23 H           2.1153    2.9863    3.4719 H       1  UNL1        0.0230
     24 H           0.8738    0.2096    3.8383 H       1  UNL1        0.0266
     25 H           0.1210    1.5528    2.9875 H       1  UNL1        0.0266
     26 H           2.1073    1.5749    1.3834 H       1  UNL1        0.0328
     27 H           2.7431    0.1638    2.1896 H       1  UNL1        0.0328
     28 H          -0.9523   -3.9746    1.8292 H       1  UNL1        0.1437
     29 H           0.4798   -3.5246    2.5915 H       1  UNL1        0.1437
     30 H           0.5498   -1.5110   -3.3062 H       1  UNL1        0.0625
     31 H          -0.5985   -1.0258   -5.4570 H       1  UNL1        0.0633
     32 H          -2.8093    0.1336   -5.4021 H       1  UNL1        0.0829
     33 H          -2.7966    0.3133   -1.2940 H       1  UNL1        0.0836
     34 H           0.5054    1.4025   -1.8546 H       1  UNL1        0.0311
     35 H           1.6816    1.7416   -0.6468 H       1  UNL1        0.0311
     36 H          -0.1146    3.4660   -0.7165 H       1  UNL1        0.0233
     37 H          -1.3415    2.2469   -0.3373 H       1  UNL1        0.0233
     38 H          -0.1186    2.6755    0.8633 H       1  UNL1        0.0233
@<TRIPOS>BOND
     1     1     2    1
     2     2     3    1
     3     3     4    1
     4     4     5   ar
     5     5     6   ar
     6     6     7    1
     7     6     8   ar
     8     8     9    1
     9     9    10    3
    10     8    11   ar
    11    11    12    1
    12    12    13   ar
    13    13    14   ar
    14    14    15   ar
    15    15    16   ar
    16    16    17   ar
    17    11    18   ar
    18    18    19    1
    19    19    20    1
    20    18     4   ar
    21    17    12   ar
    22     1    21    1
    23     1    22    1
    24     1    23    1
    25     2    24    1
    26     2    25    1
    27     3    26    1
    28     3    27    1
    29     7    28    1
    30     7    29    1
    31    13    30    1
    32    14    31    1
    33    15    32    1
    34    17    33    1
    35    19    34    1
    36    19    35    1
    37    20    36    1
    38    20    37    1
    39    20    38    1
