@<TRIPOS>MOLECULE
*****
 36 37 0 0 0
SMALL
GASTEIGER

@<TRIPOS>ATOM
      1 C          -2.7979    3.7864   -1.1784 C.3     1  UNL1       -0.0649
      2 C          -1.4719    3.0808   -0.9411 C.3     1  UNL1       -0.0491
      3 C          -1.6657    1.7655   -0.1852 C.3     1  UNL1        0.0054
      4 C          -0.3756    1.0403    0.0494 C.ar    1  UNL1        0.1121
      5 N           0.8378    1.5230   -0.1693 N.ar    1  UNL1       -0.2252
      6 C           1.7073    0.5227    0.1818 C.ar    1  UNL1        0.1707
      7 C           3.1566    0.4987    0.1403 C.ar    1  UNL1        0.2840
      8 O           3.8368    1.4446   -0.2519 O.2     1  UNL1       -0.2651
      9 N           3.7083   -0.7197    0.5914 N.ar    1  UNL1       -0.2623
     10 C           5.1536   -0.8059    0.5704 C.3     1  UNL1        0.0196
     11 C           2.9804   -1.8359    1.0224 C.ar    1  UNL1        0.3307
     12 O           3.4935   -2.8941    1.3872 O.2     1  UNL1       -0.2464
     13 N           1.6043   -1.7330    1.0332 N.ar    1  UNL1       -0.2918
     14 C           1.0185   -0.5726    0.6195 C.ar    1  UNL1        0.1478
     15 N          -0.3051   -0.2528    0.5424 N.ar    1  UNL1       -0.3137
     16 C          -1.4208   -1.0996    0.9193 C.3     1  UNL1        0.0260
     17 C          -1.8650   -2.0085   -0.2236 C.3     1  UNL1       -0.0377
     18 C          -3.0394   -2.8811    0.1876 C.3     1  UNL1       -0.0637
     19 H          -3.4730    3.1632   -1.7736 H       1  UNL1        0.0230
     20 H          -2.6367    4.7243   -1.7189 H       1  UNL1        0.0230
     21 H          -3.2924    4.0211   -0.2304 H       1  UNL1        0.0230
     22 H          -0.9877    2.8921   -1.9071 H       1  UNL1        0.0267
     23 H          -0.8086    3.7470   -0.3761 H       1  UNL1        0.0267
     24 H          -2.1382    1.9680    0.7835 H       1  UNL1        0.0343
     25 H          -2.3450    1.1212   -0.7559 H       1  UNL1        0.0343
     26 H           5.5731    0.0344    1.1334 H       1  UNL1        0.0458
     27 H           5.4950   -0.7299   -0.4672 H       1  UNL1        0.0458
     28 H           5.5248   -1.7397    0.9997 H       1  UNL1        0.0458
     29 H           1.0832   -2.5415    1.3444 H       1  UNL1        0.1719
     30 H          -1.1086   -1.6901    1.7885 H       1  UNL1        0.0493
     31 H          -2.2418   -0.4557    1.2521 H       1  UNL1        0.0493
     32 H          -2.1491   -1.4078   -1.0957 H       1  UNL1        0.0280
     33 H          -1.0333   -2.6490   -0.5407 H       1  UNL1        0.0280
     34 H          -3.9008   -2.2694    0.4744 H       1  UNL1        0.0230
     35 H          -3.3421   -3.5257   -0.6435 H       1  UNL1        0.0230
     36 H          -2.7744   -3.5212    1.0351 H       1  UNL1        0.0230
@<TRIPOS>BOND
     1     1     2    1
     2     2     3    1
     3     3     4    1
     4     4     5   ar
     5     5     6   ar
     6     6     7   ar
     7     7     8    2
     8     7     9   ar
     9     9    10    1
    10     9    11   ar
    11    11    12    2
    12    11    13   ar
    13    13    14   ar
    14    14    15   ar
    15    15    16    1
    16    16    17    1
    17    17    18    1
    18    15     4   ar
    19    14     6   ar
    20     1    19    1
    21     1    20    1
    22     1    21    1
    23     2    22    1
    24     2    23    1
    25     3    24    1
    26     3    25    1
    27    10    26    1
    28    10    27    1
    29    10    28    1
    30    13    29    1
    31    16    30    1
    32    16    31    1
    33    17    32    1
    34    17    33    1
    35    18    34    1
    36    18    35    1
    37    18    36    1
