@<TRIPOS>MOLECULE
*****
 32 34 0 0 0
SMALL
GASTEIGER

@<TRIPOS>ATOM
      1 C           4.4488    0.5308    0.9717 C.3     1  UNL1       -0.0649
      2 C           2.9316    0.6285    0.9753 C.3     1  UNL1       -0.0505
      3 C           2.3638    0.5428   -0.4415 C.3     1  UNL1       -0.0103
      4 C           0.8552    0.6427   -0.4385 C.ar    1  UNL1        0.0472
      5 N           0.3626    1.9208   -0.5220 N.ar    1  UNL1       -0.2305
      6 C          -0.9964    1.9795   -0.5154 C.ar    1  UNL1        0.1835
      7 N          -1.7490    3.0798   -0.5969 N.ar    1  UNL1       -0.1521
      8 N          -3.0086    2.6018   -0.5513 N.ar    1  UNL1       -0.2619
      9 C          -3.1078    1.2321   -0.4697 C.ar    1  UNL1        0.1212
     10 N          -4.3045    0.6054   -0.4405 N.pl3   1  UNL1       -0.3430
     11 C          -1.8069    0.8009   -0.4239 C.ar    1  UNL1        0.0632
     12 C          -1.3425   -0.4978   -0.3220 C.ar    1  UNL1       -0.0285
     13 C           0.0628   -0.5268   -0.3293 C.ar    1  UNL1       -0.0221
     14 C           0.5243   -1.9562   -0.2572 C.3     1  UNL1       -0.0254
     15 C          -0.7373   -2.6673    0.2601 C.3     1  UNL1       -0.0450
     16 C          -1.9413   -1.8595   -0.2420 C.3     1  UNL1       -0.0263
     17 H           4.7792   -0.4212    0.5440 H       1  UNL1        0.0230
     18 H           4.8929    1.3432    0.3877 H       1  UNL1        0.0230
     19 H           4.8353    0.5964    1.9935 H       1  UNL1        0.0230
     20 H           2.6332    1.5745    1.4434 H       1  UNL1        0.0266
     21 H           2.5223   -0.1748    1.5994 H       1  UNL1        0.0266
     22 H           2.6814   -0.3842   -0.9332 H       1  UNL1        0.0328
     23 H           2.7679    1.3614   -1.0508 H       1  UNL1        0.0328
     24 H          -3.7697    3.2678   -0.5806 H       1  UNL1        0.1903
     25 H          -4.3446   -0.4024   -0.5756 H       1  UNL1        0.1437
     26 H          -5.1629    1.0689   -0.7283 H       1  UNL1        0.1437
     27 H           1.3611   -2.0982    0.4317 H       1  UNL1        0.0314
     28 H           0.7953   -2.3120   -1.2566 H       1  UNL1        0.0314
     29 H          -0.7803   -3.7166   -0.0481 H       1  UNL1        0.0272
     30 H          -0.7297   -2.6542    1.3591 H       1  UNL1        0.0272
     31 H          -2.7803   -1.9137    0.4562 H       1  UNL1        0.0314
     32 H          -2.2556   -2.1925   -1.2361 H       1  UNL1        0.0314
@<TRIPOS>BOND
     1     1     2    1
     2     2     3    1
     3     3     4    1
     4     4     5   ar
     5     5     6   ar
     6     6     7   ar
     7     7     8   ar
     8     8     9   ar
     9     9    10    1
    10     9    11   ar
    11    11    12   ar
    12    12    13   ar
    13    13    14    1
    14    14    15    1
    15    15    16    1
    16    13     4   ar
    17    11     6   ar
    18    16    12    1
    19     1    17    1
    20     1    18    1
    21     1    19    1
    22     2    20    1
    23     2    21    1
    24     3    22    1
    25     3    23    1
    26     8    24    1
    27    10    25    1
    28    10    26    1
    29    14    27    1
    30    14    28    1
    31    15    29    1
    32    15    30    1
    33    16    31    1
    34    16    32    1
