@<TRIPOS>MOLECULE
*****
 32 32 0 0 0
SMALL
GASTEIGER

@<TRIPOS>ATOM
      1 C           4.0854   -0.7911   -1.1454 C.3     1  UNL1       -0.0653
      2 C           4.1443   -0.3323    0.3035 C.3     1  UNL1       -0.0555
      3 C           2.7973   -0.4142    1.0230 C.3     1  UNL1       -0.0463
      4 C           1.7588    0.5607    0.4738 C.3     1  UNL1        0.0106
      5 C           0.4689    0.4806    1.2694 C.2     1  UNL1        0.1686
      6 O           0.4486    0.7030    2.4813 O.2     1  UNL1       -0.2919
      7 C          -0.7913    0.1748    0.5354 C.ar    1  UNL1        0.0845
      8 C          -1.8907    0.9501    0.6759 C.ar    1  UNL1       -0.0332
      9 C          -1.9825    2.1990    1.5118 C.3     1  UNL1       -0.0388
     10 C          -3.1160    0.6052   -0.0357 C.ar    1  UNL1       -0.0390
     11 C          -3.1700   -0.4588   -0.8507 C.ar    1  UNL1        0.0163
     12 C          -4.3955   -0.8660   -1.6085 C.3     1  UNL1       -0.0244
     13 N          -2.0488   -1.2349   -1.0092 N.ar    1  UNL1       -0.3259
     14 C          -0.8524   -1.0109   -0.3722 C.ar    1  UNL1        0.2597
     15 O           0.1074   -1.7540   -0.5503 O.2     1  UNL1       -0.2671
     16 H           3.6706   -1.8012   -1.2214 H       1  UNL1        0.0230
     17 H           3.4747   -0.1193   -1.7554 H       1  UNL1        0.0230
     18 H           5.0919   -0.8050   -1.5758 H       1  UNL1        0.0230
     19 H           4.5303    0.6927    0.3474 H       1  UNL1        0.0263
     20 H           4.8626   -0.9647    0.8389 H       1  UNL1        0.0263
     21 H           2.4120   -1.4398    0.9733 H       1  UNL1        0.0269
     22 H           2.9630   -0.2037    2.0872 H       1  UNL1        0.0269
     23 H           1.5609    0.3758   -0.5857 H       1  UNL1        0.0345
     24 H           2.1222    1.5926    0.5476 H       1  UNL1        0.0345
     25 H          -2.5572    2.0039    2.4234 H       1  UNL1        0.0278
     26 H          -2.4836    2.9998    0.9554 H       1  UNL1        0.0278
     27 H          -1.0066    2.5981    1.8001 H       1  UNL1        0.0278
     28 H          -3.9913    1.2324    0.1136 H       1  UNL1        0.0638
     29 H          -4.7050   -1.8760   -1.3200 H       1  UNL1        0.0292
     30 H          -4.1985   -0.8580   -2.6856 H       1  UNL1        0.0292
     31 H          -5.2364   -0.1911   -1.4173 H       1  UNL1        0.0292
     32 H          -2.0730   -2.0479   -1.6134 H       1  UNL1        0.1686
@<TRIPOS>BOND
     1     1     2    1
     2     2     3    1
     3     3     4    1
     4     4     5    1
     5     5     6    2
     6     5     7    1
     7     7     8   ar
     8     8     9    1
     9     8    10   ar
    10    10    11   ar
    11    11    12    1
    12    11    13   ar
    13    13    14   ar
    14    14    15    2
    15    14     7   ar
    16     1    16    1
    17     1    17    1
    18     1    18    1
    19     2    19    1
    20     2    20    1
    21     3    21    1
    22     3    22    1
    23     4    23    1
    24     4    24    1
    25     9    25    1
    26     9    26    1
    27     9    27    1
    28    10    28    1
    29    12    29    1
    30    12    30    1
    31    12    31    1
    32    13    32    1
