@<TRIPOS>MOLECULE
*****
 32 33 0 0 0
SMALL
GASTEIGER

@<TRIPOS>ATOM
      1 C           5.5588   -0.3082   -0.2910 C.3     1  UNL1       -0.0653
      2 C           4.1069   -0.7532   -0.3760 C.3     1  UNL1       -0.0555
      3 C           3.1759    0.4305   -0.6516 C.3     1  UNL1       -0.0463
      4 C           1.7088    0.0127   -0.7637 C.3     1  UNL1        0.0108
      5 C           1.0254   -0.1295    0.5873 C.2     1  UNL1        0.1736
      6 O           1.6304   -0.4432    1.6117 O.2     1  UNL1       -0.2917
      7 C          -0.4431    0.0983    0.6234 C.ar    1  UNL1        0.1444
      8 C          -0.9566    1.0396    1.4344 C.ar    1  UNL1        0.2991
      9 O          -0.1338    1.8344    2.2034 O.3     1  UNL1       -0.4794
     10 O          -2.3095    1.3121    1.5482 O.2     1  UNL1       -0.4243
     11 C          -3.1933    0.5869    0.7936 C.ar    1  UNL1        0.1426
     12 C          -4.5500    0.8715    0.9494 C.ar    1  UNL1       -0.0185
     13 C          -5.4982    0.1690    0.2027 C.ar    1  UNL1       -0.0582
     14 C          -5.0909   -0.8156   -0.6992 C.ar    1  UNL1       -0.0609
     15 C          -3.7338   -1.1001   -0.8559 C.ar    1  UNL1       -0.0474
     16 C          -2.7887   -0.3945   -0.1045 C.ar    1  UNL1        0.0649
     17 C          -1.3523   -0.6699   -0.2480 C.ar    1  UNL1        0.2068
     18 O          -0.9455   -1.4934   -1.0580 O.2     1  UNL1       -0.2862
     19 H           6.2081   -1.1682   -0.0990 H       1  UNL1        0.0230
     20 H           5.7010    0.4128    0.5203 H       1  UNL1        0.0230
     21 H           5.8819    0.1586   -1.2270 H       1  UNL1        0.0230
     22 H           3.8332   -1.2493    0.5609 H       1  UNL1        0.0263
     23 H           4.0073   -1.4968   -1.1754 H       1  UNL1        0.0263
     24 H           3.2962    1.1918    0.1286 H       1  UNL1        0.0269
     25 H           3.4764    0.8936   -1.5999 H       1  UNL1        0.0269
     26 H           1.6146   -0.9295   -1.3130 H       1  UNL1        0.0345
     27 H           1.1776    0.7901   -1.3263 H       1  UNL1        0.0345
     28 H          -0.7290    2.3535    2.7726 H       1  UNL1        0.2953
     29 H          -4.8726    1.6377    1.6499 H       1  UNL1        0.0654
     30 H          -6.5567    0.3890    0.3237 H       1  UNL1        0.0619
     31 H          -5.8308   -1.3622   -1.2799 H       1  UNL1        0.0618
     32 H          -3.4176   -1.8684   -1.5586 H       1  UNL1        0.0626
@<TRIPOS>BOND
     1     1     2    1
     2     2     3    1
     3     3     4    1
     4     4     5    1
     5     5     6    2
     6     5     7    1
     7     7     8   ar
     8     8     9    1
     9     8    10   ar
    10    10    11   ar
    11    11    12   ar
    12    12    13   ar
    13    13    14   ar
    14    14    15   ar
    15    15    16   ar
    16    16    17   ar
    17    17    18    2
    18    17     7   ar
    19    16    11   ar
    20     1    19    1
    21     1    20    1
    22     1    21    1
    23     2    22    1
    24     2    23    1
    25     3    24    1
    26     3    25    1
    27     4    26    1
    28     4    27    1
    29     9    28    1
    30    12    29    1
    31    13    30    1
    32    14    31    1
    33    15    32    1
