@<TRIPOS>MOLECULE
*****
 47 48 0 0 0
SMALL
GASTEIGER

@<TRIPOS>ATOM
      1 C           8.1201   -0.0473    0.0473 C.3     1  UNL1       -0.0653
      2 C           7.3861   -0.6136   -1.1591 C.3     1  UNL1       -0.0555
      3 C           5.9752   -1.1133   -0.8418 C.3     1  UNL1       -0.0450
      4 C           5.0399   -0.0142   -0.3386 C.3     1  UNL1        0.0243
      5 C           3.6024   -0.4950   -0.1899 C.2     1  UNL1        0.2172
      6 O           3.2495   -1.6179   -0.5284 O.2     1  UNL1       -0.2755
      7 N           2.7960    0.4941    0.3535 N.am    1  UNL1       -0.2855
      8 C           1.4170    0.4194    0.6375 C.ar    1  UNL1        0.0334
      9 C           0.6298   -0.7102    0.3987 C.ar    1  UNL1       -0.0398
     10 C          -0.7358   -0.7029    0.7054 C.ar    1  UNL1       -0.0479
     11 C          -1.3261    0.4452    1.2391 C.ar    1  UNL1        0.0370
     12 C          -2.7645    0.4745    1.5916 C.2     1  UNL1        0.2467
     13 O          -3.0683    0.8343    2.7277 O.2     1  UNL1       -0.2700
     14 N          -3.7016    0.1014    0.6357 N.am    1  UNL1       -0.2951
     15 C          -5.1083    0.0335    1.0334 C.3     1  UNL1        0.0278
     16 C          -5.9369   -0.8418    0.0770 C.3     1  UNL1        0.0145
     17 N          -5.8636   -0.4569   -1.3501 N.3     1  UNL1       -0.3024
     18 C          -7.0743    0.2395   -1.7833 C.3     1  UNL1       -0.0126
     19 C          -4.6675    0.3571   -1.6492 C.3     1  UNL1        0.0145
     20 C          -3.4366   -0.0259   -0.8047 C.3     1  UNL1        0.0278
     21 C          -0.5434    1.5680    1.5101 C.ar    1  UNL1       -0.0479
     22 C           0.8204    1.5558    1.2028 C.ar    1  UNL1       -0.0398
     23 H           8.1398   -0.7712    0.8693 H       1  UNL1        0.0230
     24 H           9.1547    0.1889   -0.2202 H       1  UNL1        0.0230
     25 H           7.6531    0.8733    0.4080 H       1  UNL1        0.0230
     26 H           7.9692   -1.4530   -1.5592 H       1  UNL1        0.0263
     27 H           7.3419    0.1457   -1.9494 H       1  UNL1        0.0263
     28 H           6.0281   -1.9191   -0.0973 H       1  UNL1        0.0270
     29 H           5.5588   -1.5639   -1.7524 H       1  UNL1        0.0270
     30 H           5.3778    0.3462    0.6401 H       1  UNL1        0.0358
     31 H           5.0436    0.8295   -1.0392 H       1  UNL1        0.0358
     32 H           3.2486    1.3700    0.5835 H       1  UNL1        0.1548
     33 H           1.0501   -1.6224   -0.0153 H       1  UNL1        0.0636
     34 H          -1.3237   -1.6017    0.5410 H       1  UNL1        0.0626
     35 H          -5.1792   -0.3565    2.0548 H       1  UNL1        0.0477
     36 H          -5.4965    1.0589    1.0435 H       1  UNL1        0.0477
     37 H          -6.9750   -0.8926    0.4286 H       1  UNL1        0.0442
     38 H          -5.5526   -1.8669    0.1434 H       1  UNL1        0.0442
     39 H          -7.2424    1.1634   -1.2175 H       1  UNL1        0.0391
     40 H          -7.9523   -0.4053   -1.6614 H       1  UNL1        0.0391
     41 H          -7.0150    0.4890   -2.8487 H       1  UNL1        0.0391
     42 H          -4.8760    1.4220   -1.4702 H       1  UNL1        0.0442
     43 H          -4.4226    0.2489   -2.7121 H       1  UNL1        0.0442
     44 H          -3.1627   -1.0697   -0.9968 H       1  UNL1        0.0477
     45 H          -2.5915    0.6103   -1.0866 H       1  UNL1        0.0477
     46 H          -0.9926    2.4474    1.9651 H       1  UNL1        0.0626
     47 H           1.4068    2.4448    1.4203 H       1  UNL1        0.0636
@<TRIPOS>BOND
     1     1     2    1
     2     2     3    1
     3     3     4    1
     4     4     5    1
     5     5     6    2
     6     5     7   am
     7     7     8    1
     8     8     9   ar
     9     9    10   ar
    10    10    11   ar
    11    11    12    1
    12    12    13    2
    13    12    14   am
    14    14    15    1
    15    15    16    1
    16    16    17    1
    17    17    18    1
    18    17    19    1
    19    19    20    1
    20    11    21   ar
    21    21    22   ar
    22    22     8   ar
    23    20    14    1
    24     1    23    1
    25     1    24    1
    26     1    25    1
    27     2    26    1
    28     2    27    1
    29     3    28    1
    30     3    29    1
    31     4    30    1
    32     4    31    1
    33     7    32    1
    34     9    33    1
    35    10    34    1
    36    15    35    1
    37    15    36    1
    38    16    37    1
    39    16    38    1
    40    18    39    1
    41    18    40    1
    42    18    41    1
    43    19    42    1
    44    19    43    1
    45    20    44    1
    46    20    45    1
    47    21    46    1
    48    22    47    1
