@<TRIPOS>MOLECULE
*****
 32 32 0 0 0
SMALL
GASTEIGER

@<TRIPOS>ATOM
      1 C           5.4377    0.9400   -0.9113 C.3     1  UNL1       -0.0653
      2 C           5.0448    0.1042    0.2970 C.3     1  UNL1       -0.0555
      3 C           3.6138    0.3573    0.7747 C.3     1  UNL1       -0.0450
      4 C           2.5525   -0.0707   -0.2386 C.3     1  UNL1        0.0243
      5 C           1.1365    0.0789    0.3027 C.2     1  UNL1        0.2186
      6 O           0.9114    0.5322    1.4181 O.2     1  UNL1       -0.2754
      7 N           0.2073   -0.3500   -0.6205 N.am    1  UNL1       -0.2647
      8 C          -1.1556   -0.3621   -0.4822 C.ar    1  UNL1        0.1652
      9 N          -1.9225   -0.8003   -1.4499 N.ar    1  UNL1       -0.2291
     10 C          -3.2570   -0.7132   -1.0741 C.ar    1  UNL1        0.0580
     11 C          -4.2890   -1.1665   -2.0465 C.3     1  UNL1       -0.0211
     12 C          -3.4725   -0.1997    0.1980 C.ar    1  UNL1        0.0784
     13 C          -4.7394    0.0167    0.8792 C.2     1  UNL1        0.1685
     14 C          -4.7310    0.5935    2.2767 C.3     1  UNL1       -0.0008
     15 O          -5.8224   -0.2546    0.3552 O.2     1  UNL1       -0.2917
     16 S          -1.9595    0.1718    0.9129 S.2     1  UNL1       -0.0489
     17 H           5.2847    2.0064   -0.7183 H       1  UNL1        0.0230
     18 H           4.8593    0.6614   -1.7970 H       1  UNL1        0.0230
     19 H           6.4960    0.7866   -1.1457 H       1  UNL1        0.0230
     20 H           5.7317    0.3369    1.1195 H       1  UNL1        0.0263
     21 H           5.1782   -0.9587    0.0643 H       1  UNL1        0.0263
     22 H           3.4876    1.4197    1.0181 H       1  UNL1        0.0270
     23 H           3.4620   -0.1941    1.7114 H       1  UNL1        0.0270
     24 H           2.7052   -1.1214   -0.5125 H       1  UNL1        0.0358
     25 H           2.6280    0.5382   -1.1464 H       1  UNL1        0.0358
     26 H           0.5142   -0.7038   -1.5157 H       1  UNL1        0.1567
     27 H          -3.8231   -1.5237   -2.9706 H       1  UNL1        0.0293
     28 H          -4.8781   -1.9883   -1.6278 H       1  UNL1        0.0293
     29 H          -4.9618   -0.3433   -2.3059 H       1  UNL1        0.0293
     30 H          -5.7611    0.6888    2.6348 H       1  UNL1        0.0309
     31 H          -4.2812    1.5899    2.2748 H       1  UNL1        0.0309
     32 H          -4.1967   -0.0719    2.9601 H       1  UNL1        0.0309
@<TRIPOS>BOND
     1     1     2    1
     2     2     3    1
     3     3     4    1
     4     4     5    1
     5     5     6    2
     6     5     7   am
     7     7     8    1
     8     8     9   ar
     9     9    10   ar
    10    10    11    1
    11    10    12   ar
    12    12    13    1
    13    13    14    1
    14    13    15    2
    15    12    16   ar
    16    16     8   ar
    17     1    17    1
    18     1    18    1
    19     1    19    1
    20     2    20    1
    21     2    21    1
    22     3    22    1
    23     3    23    1
    24     4    24    1
    25     4    25    1
    26     7    26    1
    27    11    27    1
    28    11    28    1
    29    11    29    1
    30    14    30    1
    31    14    31    1
    32    14    32    1
