@<TRIPOS>MOLECULE
*****
 34 36 0 0 0
SMALL
GASTEIGER

@<TRIPOS>ATOM
      1 C           3.8538    1.4387    0.0401 C.3     1  UNL1       -0.0653
      2 C           3.5001    0.2066   -0.7786 C.3     1  UNL1       -0.0556
      3 C           3.4900   -1.0856    0.0437 C.3     1  UNL1       -0.0490
      4 C           2.3789   -1.1823    1.0994 C.3     1  UNL1       -0.0174
      5 C           0.9849   -1.1983    0.5276 C.ar    1  UNL1        0.0787
      6 C           0.0986   -0.1914    0.6295 C.ar    1  UNL1        0.2086
      7 O           0.4635    0.9952    1.2252 O.3     1  UNL1       -0.4929
      8 N          -1.1433   -0.3156    0.0688 N.ar    1  UNL1       -0.2485
      9 C          -1.4385   -1.4546   -0.6861 C.ar    1  UNL1        0.2193
     10 N          -0.6704   -2.4784   -0.8309 N.ar    1  UNL1       -0.1740
     11 C           0.5446   -2.4632   -0.1731 C.ar    1  UNL1        0.2815
     12 O           1.2794   -3.4459   -0.1545 O.2     1  UNL1       -0.2653
     13 N          -2.7138   -1.3064   -1.2127 N.ar    1  UNL1       -0.3234
     14 C          -3.3037   -0.1849   -0.6214 C.ar    1  UNL1        0.0661
     15 C          -4.5683    0.3312   -0.7867 C.ar    1  UNL1       -0.0363
     16 C          -4.8771    1.5030   -0.0922 C.ar    1  UNL1       -0.0597
     17 C          -3.9226    2.1280    0.7341 C.ar    1  UNL1       -0.0597
     18 C          -2.6295    1.6074    0.8711 C.ar    1  UNL1       -0.0356
     19 C          -2.3212    0.4643    0.1647 C.ar    1  UNL1        0.0760
     20 H           3.9175    2.3162   -0.6114 H       1  UNL1        0.0230
     21 H           4.8223    1.3152    0.5349 H       1  UNL1        0.0230
     22 H           3.1016    1.6473    0.8050 H       1  UNL1        0.0230
     23 H           2.5356    0.3571   -1.2753 H       1  UNL1        0.0263
     24 H           4.2462    0.1001   -1.5755 H       1  UNL1        0.0263
     25 H           4.4585   -1.1943    0.5479 H       1  UNL1        0.0268
     26 H           3.4129   -1.9326   -0.6488 H       1  UNL1        0.0268
     27 H           2.4944   -0.3694    1.8256 H       1  UNL1        0.0317
     28 H           2.5300   -2.1001    1.6827 H       1  UNL1        0.0317
     29 H           0.0102    1.6882    0.7169 H       1  UNL1        0.2937
     30 H          -3.2372   -2.1044   -1.5321 H       1  UNL1        0.1688
     31 H          -5.3013   -0.1497   -1.4238 H       1  UNL1        0.0639
     32 H          -5.8707    1.9376   -0.1846 H       1  UNL1        0.0618
     33 H          -4.1992    3.0295    1.2783 H       1  UNL1        0.0618
     34 H          -1.9261    2.0917    1.5367 H       1  UNL1        0.0639
@<TRIPOS>BOND
     1     1     2    1
     2     2     3    1
     3     3     4    1
     4     4     5    1
     5     5     6   ar
     6     6     7    1
     7     6     8   ar
     8     8     9   ar
     9     9    10   ar
    10    10    11   ar
    11    11    12    2
    12     9    13   ar
    13    13    14   ar
    14    14    15   ar
    15    15    16   ar
    16    16    17   ar
    17    17    18   ar
    18    18    19   ar
    19    11     5   ar
    20    19    14   ar
    21    19     8   ar
    22     1    20    1
    23     1    21    1
    24     1    22    1
    25     2    23    1
    26     2    24    1
    27     3    25    1
    28     3    26    1
    29     4    27    1
    30     4    28    1
    31     7    29    1
    32    13    30    1
    33    15    31    1
    34    16    32    1
    35    17    33    1
    36    18    34    1
