@<TRIPOS>MOLECULE
*****
 47 54 0 0 0
SMALL
GASTEIGER

@<TRIPOS>ATOM
      1 SI          6.3721    1.5248   -0.6736 Si      1  UNL1        0.0000
      2 C           7.8495    0.3946   -0.3926 C.2     1  UNL1        0.0000
      3 C           7.4636   -0.7908    0.1131 C.2     1  UNL1        0.0000
      4 C           6.0308   -0.9383    0.3291 C.2     1  UNL1        0.0000
      5 C           5.2809    0.1327   -0.0069 C.2     1  UNL1        0.0000
      6 C           3.8706    0.2357    0.1120 C.ar    1  UNL1        0.0000
      7 C           3.0995    1.3175    0.4957 C.ar    1  UNL1        0.0000
      8 C           1.7248    1.0022    0.4594 C.ar    1  UNL1        0.0000
      9 C           0.6965    1.9066    0.8515 C.ar    1  UNL1        0.0000
     10 N           0.9964    3.1069    1.3317 N.ar    1  UNL1        0.0000
     11 S          -0.4965    3.7178    1.7475 S.2     1  UNL1        0.0000
     12 N          -1.4650    2.4505    1.2816 N.ar    1  UNL1        0.0000
     13 C          -0.6902    1.4860    0.7348 C.ar    1  UNL1        0.0000
     14 C          -1.1354    0.2205    0.1968 C.ar    1  UNL1        0.0000
     15 C           0.0035   -0.6835    0.0202 C.ar    1  UNL1        0.0000
     16 C          -0.4513   -1.9992   -0.1762 C.ar    1  UNL1        0.0000
     17 C           0.2870   -3.1550   -0.3081 C.ar    1  UNL1        0.0000
     18 N          -0.5826   -4.2159   -0.4162 N.ar    1  UNL1        0.0000
     19 C          -1.8747   -3.7653   -0.3371 C.ar    1  UNL1        0.0000
     20 C          -1.8253   -2.3973   -0.1882 C.ar    1  UNL1        0.0000
     21 C          -2.9381   -1.5335   -0.0939 C.ar    1  UNL1        0.0000
     22 C          -4.2683   -2.0017   -0.0772 C.ar    1  UNL1        0.0000
     23 C          -5.3178   -1.1019   -0.0627 C.ar    1  UNL1        0.0000
     24 C          -5.0676    0.2608   -0.1854 C.ar    1  UNL1        0.0000
     25 C          -6.1675    1.1277   -0.3094 C.ar    1  UNL1        0.0000
     26 C          -5.9898    2.4814   -0.5667 C.ar    1  UNL1        0.0000
     27 C          -4.7075    2.9705   -0.7356 C.ar    1  UNL1        0.0000
     28 C          -3.6100    2.1133   -0.5912 C.ar    1  UNL1        0.0000
     29 C          -3.7272    0.7472   -0.2363 C.ar    1  UNL1        0.0000
     30 C          -2.5913   -0.1492   -0.0321 C.ar    1  UNL1        0.0000
     31 C           1.3692   -0.2746    0.0804 C.ar    1  UNL1        0.0000
     32 S           2.8516   -1.1089   -0.2524 S.2     1  UNL1        0.0000
     33 H           6.4034    2.7122    0.2176 H       1  UNL1        0.0000
     34 H           6.1544    1.8008   -2.1160 H       1  UNL1        0.0000
     35 H           8.8550    0.7073   -0.6253 H       1  UNL1        0.0000
     36 H           8.1474   -1.5958    0.3538 H       1  UNL1        0.0000
     37 H           5.6407   -1.8601    0.7441 H       1  UNL1        0.0000
     38 H           3.5082    2.2749    0.7988 H       1  UNL1        0.0000
     39 H           1.3452   -3.3626   -0.3276 H       1  UNL1        0.0000
     40 H          -0.3068   -5.1835   -0.5261 H       1  UNL1        0.0000
     41 H          -2.6956   -4.4655   -0.4037 H       1  UNL1        0.0000
     42 H          -4.4918   -3.0639   -0.0685 H       1  UNL1        0.0000
     43 H          -6.3354   -1.4841   -0.0320 H       1  UNL1        0.0000
     44 H          -7.1836    0.7449   -0.2349 H       1  UNL1        0.0000
     45 H          -6.8482    3.1381   -0.6723 H       1  UNL1        0.0000
     46 H          -4.5474    4.0149   -0.9888 H       1  UNL1        0.0000
     47 H          -2.6358    2.5408   -0.8095 H       1  UNL1        0.0000
@<TRIPOS>BOND
     1     1     2    1
     2     2     3    2
     3     3     4    1
     4     4     5    2
     5     5     6    1
     6     6     7   ar
     7     7     8   ar
     8     8     9   ar
     9     9    10   ar
    10    10    11   ar
    11    11    12   ar
    12    12    13   ar
    13    13    14   ar
    14    14    15   ar
    15    15    16   ar
    16    16    17   ar
    17    17    18   ar
    18    18    19   ar
    19    19    20   ar
    20    20    21   ar
    21    21    22   ar
    22    22    23   ar
    23    23    24   ar
    24    24    25   ar
    25    25    26   ar
    26    26    27   ar
    27    27    28   ar
    28    28    29   ar
    29    29    30   ar
    30    15    31   ar
    31    31    32   ar
    32     5     1    1
    33    32     6   ar
    34    31     8   ar
    35    13     9   ar
    36    30    14   ar
    37    20    16   ar
    38    30    21   ar
    39    29    24   ar
    40     1    33    1
    41     1    34    1
    42     2    35    1
    43     3    36    1
    44     4    37    1
    45     7    38    1
    46    17    39    1
    47    18    40    1
    48    19    41    1
    49    22    42    1
    50    23    43    1
    51    25    44    1
    52    26    45    1
    53    27    46    1
    54    28    47    1
