@<TRIPOS>MOLECULE
*****
 45 46 0 0 0
SMALL
GASTEIGER

@<TRIPOS>ATOM
      1 C           7.4502    1.3861    1.3899 C.3     1  UNL1       -0.0653
      2 C           6.7296    0.2734    0.6435 C.3     1  UNL1       -0.0559
      3 C           5.8106   -0.5179    1.5753 C.3     1  UNL1       -0.0529
      4 C           5.1596   -1.7340    0.9051 C.3     1  UNL1       -0.0448
      5 C           4.2084   -1.4036   -0.2445 C.3     1  UNL1        0.0254
      6 C           2.9332   -0.7156    0.2015 C.2     1  UNL1        0.2291
      7 O           2.5648   -0.6162    1.3694 O.2     1  UNL1       -0.2743
      8 N           2.1920   -0.2190   -0.8561 N.am    1  UNL1       -0.2342
      9 N           0.8747    0.1888   -0.5652 N.am    1  UNL1       -0.2304
     10 C          -0.1092   -0.2324   -1.4421 C.2     1  UNL1        0.2601
     11 O           0.1548   -0.7719   -2.5148 O.2     1  UNL1       -0.2687
     12 C          -1.5200   -0.0360   -1.0077 C.ar    1  UNL1        0.0382
     13 C          -2.5136   -0.8187   -1.6053 C.ar    1  UNL1       -0.0490
     14 C          -3.8526   -0.6686   -1.2294 C.ar    1  UNL1       -0.0533
     15 C          -4.2306    0.2693   -0.2554 C.ar    1  UNL1       -0.0178
     16 C          -5.6400    0.4275    0.1392 C.ar    1  UNL1       -0.0179
     17 C          -6.0281    0.3450    1.4871 C.ar    1  UNL1       -0.0540
     18 C          -7.3660    0.4950    1.8625 C.ar    1  UNL1       -0.0612
     19 C          -8.3393    0.7315    0.8953 C.ar    1  UNL1       -0.0617
     20 C          -7.9763    0.8173   -0.4462 C.ar    1  UNL1       -0.0612
     21 C          -6.6383    0.6659   -0.8203 C.ar    1  UNL1       -0.0540
     22 C          -3.2238    1.0580    0.3263 C.ar    1  UNL1       -0.0533
     23 C          -1.8816    0.9133   -0.0457 C.ar    1  UNL1       -0.0490
     24 H           8.0987    1.9427    0.7061 H       1  UNL1        0.0230
     25 H           6.7361    2.0897    1.8295 H       1  UNL1        0.0230
     26 H           8.0731    0.9806    2.1935 H       1  UNL1        0.0230
     27 H           6.1523    0.7194   -0.1732 H       1  UNL1        0.0263
     28 H           7.4715   -0.3960    0.1933 H       1  UNL1        0.0263
     29 H           5.0415    0.1466    1.9848 H       1  UNL1        0.0265
     30 H           6.3963   -0.8782    2.4305 H       1  UNL1        0.0265
     31 H           5.9504   -2.3933    0.5262 H       1  UNL1        0.0270
     32 H           4.6205   -2.3049    1.6715 H       1  UNL1        0.0270
     33 H           4.7063   -0.7918   -1.0034 H       1  UNL1        0.0359
     34 H           3.9092   -2.3415   -0.7288 H       1  UNL1        0.0359
     35 H           2.3167   -0.6037   -1.7937 H       1  UNL1        0.1728
     36 H           0.6757    0.2938    0.4298 H       1  UNL1        0.1731
     37 H          -2.2509   -1.5540   -2.3637 H       1  UNL1        0.0625
     38 H          -4.6035   -1.3016   -1.6995 H       1  UNL1        0.0624
     39 H          -5.2863    0.1491    2.2587 H       1  UNL1        0.0624
     40 H          -7.6463    0.4239    2.9103 H       1  UNL1        0.0618
     41 H          -9.3798    0.8484    1.1866 H       1  UNL1        0.0618
     42 H          -8.7330    1.0045   -1.2037 H       1  UNL1        0.0618
     43 H          -6.3760    0.7478   -1.8733 H       1  UNL1        0.0624
     44 H          -3.4853    1.8119    1.0675 H       1  UNL1        0.0624
     45 H          -1.1455    1.5694    0.4101 H       1  UNL1        0.0625
@<TRIPOS>BOND
     1     1     2    1
     2     2     3    1
     3     3     4    1
     4     4     5    1
     5     5     6    1
     6     6     7    2
     7     6     8   am
     8     8     9    1
     9     9    10   am
    10    10    11    2
    11    10    12    1
    12    12    13   ar
    13    13    14   ar
    14    14    15   ar
    15    15    16    1
    16    16    17   ar
    17    17    18   ar
    18    18    19   ar
    19    19    20   ar
    20    20    21   ar
    21    15    22   ar
    22    22    23   ar
    23    23    12   ar
    24    21    16   ar
    25     1    24    1
    26     1    25    1
    27     1    26    1
    28     2    27    1
    29     2    28    1
    30     3    29    1
    31     3    30    1
    32     4    31    1
    33     4    32    1
    34     5    33    1
    35     5    34    1
    36     8    35    1
    37     9    36    1
    38    13    37    1
    39    14    38    1
    40    17    39    1
    41    18    40    1
    42    19    41    1
    43    20    42    1
    44    21    43    1
    45    22    44    1
    46    23    45    1
