@<TRIPOS>MOLECULE
*****
 45 45 0 0 0
SMALL
GASTEIGER

@<TRIPOS>ATOM
      1 C          -5.5628   -1.7761   -0.9154 C.3     1  UNL1       -0.0653
      2 C          -4.4735   -1.8115    0.1454 C.3     1  UNL1       -0.0559
      3 C          -3.2138   -1.0318   -0.2418 C.3     1  UNL1       -0.0532
      4 C          -3.4421    0.4795   -0.3320 C.3     1  UNL1       -0.0513
      5 C          -2.1889    1.2622   -0.7470 C.3     1  UNL1       -0.0327
      6 C          -1.0399    1.2144    0.2612 C.3     1  UNL1        0.0430
      7 N          -1.3695    1.8344    1.5253 N.am    1  UNL1       -0.2948
      8 C          -0.2837    2.5258    2.0302 C.2     1  UNL1        0.3002
      9 O          -0.2075    3.0259    3.1361 O.2     1  UNL1       -0.2528
     10 N           0.7000    2.5504    1.0589 N.am    1  UNL1       -0.2948
     11 C           0.1864    2.0381   -0.1899 C.3     1  UNL1        0.0430
     12 C           1.2369    1.2943   -1.0174 C.3     1  UNL1       -0.0327
     13 C           1.8872    0.0925   -0.3199 C.3     1  UNL1       -0.0513
     14 C           2.9922   -0.5134   -1.1910 C.3     1  UNL1       -0.0525
     15 C           3.5963   -1.7982   -0.6104 C.3     1  UNL1       -0.0430
     16 C           4.3220   -1.6296    0.7247 C.3     1  UNL1        0.0448
     17 C           5.5793   -0.8086    0.6145 C.2     1  UNL1        0.3047
     18 O           6.1684   -0.4833   -0.4015 O.2     1  UNL1       -0.2510
     19 O           6.0574   -0.4592    1.8248 O.3     1  UNL1       -0.4806
     20 H          -5.9713   -0.7692   -1.0394 H       1  UNL1        0.0230
     21 H          -5.1811   -2.1175   -1.8827 H       1  UNL1        0.0230
     22 H          -6.3889   -2.4339   -0.6264 H       1  UNL1        0.0230
     23 H          -4.8726   -1.4303    1.0925 H       1  UNL1        0.0263
     24 H          -4.1930   -2.8575    0.3181 H       1  UNL1        0.0263
     25 H          -2.8282   -1.4070   -1.1974 H       1  UNL1        0.0265
     26 H          -2.4500   -1.2438    0.5143 H       1  UNL1        0.0265
     27 H          -3.8202    0.8560    0.6255 H       1  UNL1        0.0266
     28 H          -4.2184    0.6868   -1.0773 H       1  UNL1        0.0266
     29 H          -1.8379    0.8832   -1.7148 H       1  UNL1        0.0284
     30 H          -2.4868    2.3065   -0.9083 H       1  UNL1        0.0284
     31 H          -0.7592    0.1835    0.4910 H       1  UNL1        0.0517
     32 H          -2.0701    1.5082    2.1779 H       1  UNL1        0.1506
     33 H           1.4432    3.2299    1.1547 H       1  UNL1        0.1506
     34 H          -0.1440    2.9189   -0.7569 H       1  UNL1        0.0517
     35 H           0.7781    0.9606   -1.9562 H       1  UNL1        0.0284
     36 H           2.0270    2.0065   -1.2893 H       1  UNL1        0.0284
     37 H           1.1367   -0.6774   -0.1136 H       1  UNL1        0.0266
     38 H           2.3060    0.4110    0.6400 H       1  UNL1        0.0266
     39 H           3.7780    0.2315   -1.3597 H       1  UNL1        0.0265
     40 H           2.5755   -0.7534   -2.1774 H       1  UNL1        0.0265
     41 H           4.2908   -2.2170   -1.3495 H       1  UNL1        0.0270
     42 H           2.7963   -2.5378   -0.4821 H       1  UNL1        0.0270
     43 H           3.6604   -1.1744    1.4678 H       1  UNL1        0.0377
     44 H           4.6149   -2.6189    1.0950 H       1  UNL1        0.0377
     45 H           6.8707    0.0497    1.6242 H       1  UNL1        0.2951
@<TRIPOS>BOND
     1     1     2    1
     2     2     3    1
     3     3     4    1
     4     4     5    1
     5     5     6    1
     6     6     7    1
     7     7     8   am
     8     8     9    2
     9     8    10   am
    10    10    11    1
    11    11    12    1
    12    12    13    1
    13    13    14    1
    14    14    15    1
    15    15    16    1
    16    16    17    1
    17    17    18    2
    18    17    19    1
    19    11     6    1
    20     1    20    1
    21     1    21    1
    22     1    22    1
    23     2    23    1
    24     2    24    1
    25     3    25    1
    26     3    26    1
    27     4    27    1
    28     4    28    1
    29     5    29    1
    30     5    30    1
    31     6    31    1
    32     7    32    1
    33    10    33    1
    34    11    34    1
    35    12    35    1
    36    12    36    1
    37    13    37    1
    38    13    38    1
    39    14    39    1
    40    14    40    1
    41    15    41    1
    42    15    42    1
    43    16    43    1
    44    16    44    1
    45    19    45    1
