@<TRIPOS>MOLECULE
*****
 38 40 0 0 0
SMALL
GASTEIGER

@<TRIPOS>ATOM
      1 C          -5.5505    0.9144    0.6894 C.3     1  UNL1       -0.0653
      2 C          -5.3480   -0.4225   -0.0060 C.3     1  UNL1       -0.0559
      3 C          -4.3659   -0.3608   -1.1783 C.3     1  UNL1       -0.0529
      4 C          -2.9468    0.1014   -0.8334 C.3     1  UNL1       -0.0447
      5 C          -2.2482   -0.7940    0.1900 C.3     1  UNL1        0.0240
      6 C          -0.8398   -0.3694    0.3986 C.ar    1  UNL1        0.1969
      7 N          -0.3559    0.4684    1.3012 N.ar    1  UNL1       -0.2077
      8 C           0.9926    0.4856    1.0279 C.ar    1  UNL1        0.1743
      9 C           2.0751    1.2133    1.6696 C.ar    1  UNL1        0.2808
     10 O           1.8773    1.9665    2.6208 O.2     1  UNL1       -0.2652
     11 N           3.3683    0.9867    1.1157 N.ar    1  UNL1       -0.3092
     12 C           4.4888    1.6891    1.7198 C.3     1  UNL1        0.0153
     13 C           3.6099    0.0974   -0.0085 C.ar    1  UNL1        0.0553
     14 C           4.8925   -0.1069   -0.5341 C.ar    1  UNL1       -0.0374
     15 C           5.0888   -0.9693   -1.6197 C.ar    1  UNL1       -0.0598
     16 C           4.0111   -1.6406   -2.1965 C.ar    1  UNL1       -0.0610
     17 C           2.7265   -1.4556   -1.6922 C.ar    1  UNL1       -0.0490
     18 C           2.5303   -0.5956   -0.6098 C.ar    1  UNL1        0.0432
     19 C           1.2489   -0.3424   -0.0250 C.ar    1  UNL1        0.1697
     20 O           0.0966   -0.9092   -0.4553 O.2     1  UNL1       -0.4389
     21 H          -4.6370    1.2484    1.1895 H       1  UNL1        0.0230
     22 H          -6.3321    0.8263    1.4512 H       1  UNL1        0.0230
     23 H          -5.8579    1.6859   -0.0235 H       1  UNL1        0.0230
     24 H          -5.0224   -1.1704    0.7255 H       1  UNL1        0.0263
     25 H          -6.3170   -0.7670   -0.3873 H       1  UNL1        0.0263
     26 H          -4.7711    0.3110   -1.9454 H       1  UNL1        0.0265
     27 H          -4.3128   -1.3555   -1.6383 H       1  UNL1        0.0265
     28 H          -2.3612    0.1156   -1.7621 H       1  UNL1        0.0270
     29 H          -2.9647    1.1383   -0.4764 H       1  UNL1        0.0270
     30 H          -2.7690   -0.7534    1.1528 H       1  UNL1        0.0360
     31 H          -2.2699   -1.8374   -0.1451 H       1  UNL1        0.0360
     32 H           4.1759    2.3287    2.5495 H       1  UNL1        0.0457
     33 H           4.9656    2.3266    0.9684 H       1  UNL1        0.0457
     34 H           5.2052    0.9600    2.1112 H       1  UNL1        0.0457
     35 H           5.7654    0.3904   -0.1231 H       1  UNL1        0.0638
     36 H           6.0908   -1.1168   -2.0169 H       1  UNL1        0.0618
     37 H           4.1734   -2.3077   -3.0397 H       1  UNL1        0.0618
     38 H           1.8871   -1.9795   -2.1428 H       1  UNL1        0.0625
@<TRIPOS>BOND
     1     1     2    1
     2     2     3    1
     3     3     4    1
     4     4     5    1
     5     5     6    1
     6     6     7   ar
     7     7     8   ar
     8     8     9   ar
     9     9    10    2
    10     9    11   ar
    11    11    12    1
    12    11    13   ar
    13    13    14   ar
    14    14    15   ar
    15    15    16   ar
    16    16    17   ar
    17    17    18   ar
    18    18    19   ar
    19    19    20   ar
    20    20     6   ar
    21    19     8   ar
    22    18    13   ar
    23     1    21    1
    24     1    22    1
    25     1    23    1
    26     2    24    1
    27     2    25    1
    28     3    26    1
    29     3    27    1
    30     4    28    1
    31     4    29    1
    32     5    30    1
    33     5    31    1
    34    12    32    1
    35    12    33    1
    36    12    34    1
    37    14    35    1
    38    15    36    1
    39    16    37    1
    40    17    38    1
