@<TRIPOS>MOLECULE
*****
 48 49 0 0 0
SMALL
GASTEIGER

@<TRIPOS>ATOM
      1 C           6.0975    2.1116   -0.8632 C.3     1  UNL1       -0.0653
      2 C           5.7567    1.0208    0.1404 C.3     1  UNL1       -0.0559
      3 C           4.8118   -0.0496   -0.4131 C.3     1  UNL1       -0.0533
      4 C           3.4069    0.4806   -0.7124 C.3     1  UNL1       -0.0531
      5 C           2.4653   -0.5803   -1.2944 C.3     1  UNL1       -0.0528
      6 C           2.1508   -1.7667   -0.3764 C.3     1  UNL1       -0.0488
      7 C           1.3656   -1.4267    0.8984 C.3     1  UNL1       -0.0208
      8 C          -0.0595   -1.0042    0.6385 C.ar    1  UNL1        0.0378
      9 C          -1.1055   -1.8303    0.4321 C.ar    1  UNL1        0.0240
     10 C          -1.0184   -3.3312    0.3793 C.3     1  UNL1       -0.0239
     11 N          -2.3574   -1.2932    0.2307 N.ar    1  UNL1       -0.3310
     12 C          -2.5464    0.0499    0.1010 C.ar    1  UNL1        0.1992
     13 N          -3.8344    0.4042   -0.2590 N.pl3   1  UNL1       -0.2967
     14 C          -4.9708   -0.1711    0.5022 C.3     1  UNL1        0.0383
     15 C          -6.2697    0.6091    0.2595 C.3     1  UNL1        0.0635
     16 O          -6.1744    1.9912    0.6290 O.3     1  UNL1       -0.3767
     17 C          -4.8730    2.5544    0.3845 C.3     1  UNL1        0.0635
     18 C          -4.0841    1.8012   -0.6920 C.3     1  UNL1        0.0383
     19 N          -1.5998    0.9131    0.2842 N.ar    1  UNL1       -0.1769
     20 C          -0.3523    0.4761    0.6685 C.ar    1  UNL1        0.2779
     21 O           0.5253    1.2606    1.0158 O.2     1  UNL1       -0.2654
     22 H           5.2214    2.7170   -1.1125 H       1  UNL1        0.0230
     23 H           6.4988    1.6843   -1.7875 H       1  UNL1        0.0230
     24 H           6.8541    2.7831   -0.4445 H       1  UNL1        0.0230
     25 H           6.6885    0.5325    0.4501 H       1  UNL1        0.0263
     26 H           5.3228    1.4737    1.0395 H       1  UNL1        0.0263
     27 H           4.7499   -0.8509    0.3315 H       1  UNL1        0.0265
     28 H           5.2447   -0.4891   -1.3197 H       1  UNL1        0.0265
     29 H           2.9794    0.9153    0.1960 H       1  UNL1        0.0265
     30 H           3.4727    1.2940   -1.4440 H       1  UNL1        0.0265
     31 H           2.9125   -0.9715   -2.2172 H       1  UNL1        0.0265
     32 H           1.5305   -0.0939   -1.5967 H       1  UNL1        0.0265
     33 H           1.5880   -2.5055   -0.9611 H       1  UNL1        0.0268
     34 H           3.0821   -2.2686   -0.0911 H       1  UNL1        0.0268
     35 H           1.9042   -0.6763    1.4871 H       1  UNL1        0.0315
     36 H           1.3594   -2.3133    1.5454 H       1  UNL1        0.0315
     37 H          -1.6448   -3.7706    1.1631 H       1  UNL1        0.0292
     38 H          -1.3772   -3.6947   -0.5898 H       1  UNL1        0.0292
     39 H          -0.0051   -3.7162    0.5146 H       1  UNL1        0.0292
     40 H          -3.0442   -1.8953   -0.2024 H       1  UNL1        0.1682
     41 H          -5.1200   -1.2165    0.2124 H       1  UNL1        0.0487
     42 H          -4.7326   -0.1374    1.5728 H       1  UNL1        0.0487
     43 H          -6.5617    0.5583   -0.7960 H       1  UNL1        0.0575
     44 H          -7.0858    0.1696    0.8421 H       1  UNL1        0.0575
     45 H          -4.3275    2.5550    1.3351 H       1  UNL1        0.0575
     46 H          -5.0213    3.5971    0.0869 H       1  UNL1        0.0575
     47 H          -3.1580    2.3362   -0.9270 H       1  UNL1        0.0487
     48 H          -4.6654    1.7641   -1.6213 H       1  UNL1        0.0487
@<TRIPOS>BOND
     1     1     2    1
     2     2     3    1
     3     3     4    1
     4     4     5    1
     5     5     6    1
     6     6     7    1
     7     7     8    1
     8     8     9   ar
     9     9    10    1
    10     9    11   ar
    11    11    12   ar
    12    12    13    1
    13    13    14    1
    14    14    15    1
    15    15    16    1
    16    16    17    1
    17    17    18    1
    18    12    19   ar
    19    19    20   ar
    20    20    21    2
    21    20     8   ar
    22    18    13    1
    23     1    22    1
    24     1    23    1
    25     1    24    1
    26     2    25    1
    27     2    26    1
    28     3    27    1
    29     3    28    1
    30     4    29    1
    31     4    30    1
    32     5    31    1
    33     5    32    1
    34     6    33    1
    35     6    34    1
    36     7    35    1
    37     7    36    1
    38    10    37    1
    39    10    38    1
    40    10    39    1
    41    11    40    1
    42    14    41    1
    43    14    42    1
    44    15    43    1
    45    15    44    1
    46    17    45    1
    47    17    46    1
    48    18    47    1
    49    18    48    1
