@<TRIPOS>MOLECULE
*****
 45 46 0 0 0
SMALL
GASTEIGER

@<TRIPOS>ATOM
      1 C           6.4006    0.7989    0.7715 C.3     1  UNL1       -0.0653
      2 C           5.2039    1.7183    0.9575 C.3     1  UNL1       -0.0559
      3 C           4.3705    1.9036   -0.3127 C.3     1  UNL1       -0.0533
      4 C           3.7769    0.6258   -0.9166 C.3     1  UNL1       -0.0523
      5 C           2.8214   -0.1056    0.0319 C.3     1  UNL1       -0.0436
      6 C           2.1931   -1.3657   -0.5715 C.3     1  UNL1       -0.0005
      7 S           1.1184   -1.0684   -2.0163 S.3     1  UNL1       -0.1091
      8 C          -0.2164   -0.2418   -1.2908 C.2     1  UNL1        0.0816
      9 C          -1.2171   -0.8137   -0.5949 C.2     1  UNL1        0.0647
     10 C          -1.2487   -2.2223   -0.3524 C.1     1  UNL1        0.0978
     11 N          -1.2556   -3.3619   -0.1357 N.1     1  UNL1       -0.1911
     12 C          -2.2831    0.0706    0.0355 C.3     1  UNL1        0.0295
     13 C          -3.6578   -0.5819    0.1554 C.ar    1  UNL1       -0.0385
     14 C          -4.2594   -0.7142    1.4174 C.ar    1  UNL1       -0.0545
     15 C          -5.5182   -1.3038    1.5451 C.ar    1  UNL1       -0.0199
     16 C          -6.1821   -1.7653    0.4163 C.ar    1  UNL1        0.1169
     17 O          -7.4076   -2.3362    0.5896 O.3     1  UNL1       -0.5068
     18 C          -5.6094   -1.6450   -0.8444 C.ar    1  UNL1       -0.0199
     19 C          -4.3508   -1.0525   -0.9747 C.ar    1  UNL1       -0.0545
     20 C          -2.4353    1.4273   -0.6663 C.3     1  UNL1        0.0358
     21 C          -1.1137    2.0115   -1.0875 C.2     1  UNL1        0.2185
     22 O          -0.9247    3.2200   -1.1846 O.2     1  UNL1       -0.2754
     23 N          -0.1586    1.1115   -1.4640 N.am    1  UNL1       -0.2794
     24 H           7.0311    1.1369   -0.0569 H       1  UNL1        0.0230
     25 H           6.0881   -0.2304    0.5723 H       1  UNL1        0.0230
     26 H           7.0114    0.7891    1.6799 H       1  UNL1        0.0230
     27 H           5.5679    2.7029    1.2756 H       1  UNL1        0.0263
     28 H           4.5778    1.3444    1.7748 H       1  UNL1        0.0263
     29 H           4.9937    2.3871   -1.0755 H       1  UNL1        0.0265
     30 H           3.5549    2.6042   -0.0937 H       1  UNL1        0.0265
     31 H           3.2465    0.9148   -1.8310 H       1  UNL1        0.0266
     32 H           4.5804   -0.0512   -1.2282 H       1  UNL1        0.0266
     33 H           2.0418    0.5806    0.3821 H       1  UNL1        0.0273
     34 H           3.3753   -0.4190    0.9248 H       1  UNL1        0.0273
     35 H           2.9876   -2.0476   -0.8939 H       1  UNL1        0.0380
     36 H           1.6217   -1.8928    0.1994 H       1  UNL1        0.0380
     37 H          -1.9195    0.2741    1.0546 H       1  UNL1        0.0409
     38 H          -3.7569   -0.3625    2.3160 H       1  UNL1        0.0622
     39 H          -5.9785   -1.4063    2.5240 H       1  UNL1        0.0654
     40 H          -7.7274   -2.6521   -0.2713 H       1  UNL1        0.2921
     41 H          -6.1221   -2.0044   -1.7312 H       1  UNL1        0.0654
     42 H          -3.9167   -0.9679   -1.9691 H       1  UNL1        0.0622
     43 H          -3.0468    1.3541   -1.5745 H       1  UNL1        0.0368
     44 H          -2.9325    2.1373    0.0061 H       1  UNL1        0.0368
     45 H           0.6758    1.4994   -1.8903 H       1  UNL1        0.1553
@<TRIPOS>BOND
     1     1     2    1
     2     2     3    1
     3     3     4    1
     4     4     5    1
     5     5     6    1
     6     6     7    1
     7     7     8    1
     8     8     9    2
     9     9    10    1
    10    10    11    3
    11     9    12    1
    12    12    13    1
    13    13    14   ar
    14    14    15   ar
    15    15    16   ar
    16    16    17    1
    17    16    18   ar
    18    18    19   ar
    19    12    20    1
    20    20    21    1
    21    21    22    2
    22    21    23   am
    23    23     8    1
    24    19    13   ar
    25     1    24    1
    26     1    25    1
    27     1    26    1
    28     2    27    1
    29     2    28    1
    30     3    29    1
    31     3    30    1
    32     4    31    1
    33     4    32    1
    34     5    33    1
    35     5    34    1
    36     6    35    1
    37     6    36    1
    38    12    37    1
    39    14    38    1
    40    15    39    1
    41    17    40    1
    42    18    41    1
    43    19    42    1
    44    20    43    1
    45    20    44    1
    46    23    45    1
