@<TRIPOS>MOLECULE
*****
 37 37 0 0 0
SMALL
GASTEIGER

@<TRIPOS>ATOM
      1 C           4.4624    0.8661    0.4427 C.3     1  UNL1       -0.0652
      2 C           3.4322    0.6483    1.5401 C.3     1  UNL1       -0.0544
      3 C           1.9917    0.8637    1.0734 C.3     1  UNL1       -0.0357
      4 C           1.5294   -0.1670    0.0423 C.3     1  UNL1        0.0360
      5 N           0.0895    0.0778   -0.2754 N.pl3   1  UNL1       -0.1932
      6 C          -0.7834   -1.0060    0.0900 C.ar    1  UNL1        0.0523
      7 C          -0.8970   -2.1733   -0.6691 C.ar    1  UNL1       -0.0390
      8 C          -1.7026   -3.2234   -0.2232 C.ar    1  UNL1       -0.0600
      9 C          -2.3718   -3.1226    0.9959 C.ar    1  UNL1       -0.0616
     10 C          -2.2272   -1.9773    1.7770 C.ar    1  UNL1       -0.0600
     11 C          -1.4233   -0.9274    1.3305 C.ar    1  UNL1       -0.0390
     12 S          -0.1639    0.8504   -1.7745 S.O2    1  UNL1        0.1136
     13 O          -0.1959   -0.1374   -2.8292 O.2     1  UNL1       -0.1378
     14 O           0.7719    1.9534   -1.8454 O.2     1  UNL1       -0.1378
     15 N          -1.6983    1.5190   -1.5944 N.3     1  UNL1       -0.1697
     16 C          -2.8758    0.6576   -1.7505 C.3     1  UNL1        0.0099
     17 C          -1.8527    2.5662   -0.5763 C.3     1  UNL1        0.0099
     18 H           4.3752    0.1126   -0.3454 H       1  UNL1        0.0230
     19 H           5.4731    0.7954    0.8575 H       1  UNL1        0.0230
     20 H           4.3508    1.8562   -0.0104 H       1  UNL1        0.0230
     21 H           3.6408    1.3492    2.3572 H       1  UNL1        0.0263
     22 H           3.5449   -0.3611    1.9523 H       1  UNL1        0.0263
     23 H           1.3346    0.8131    1.9509 H       1  UNL1        0.0281
     24 H           1.8837    1.8775    0.6697 H       1  UNL1        0.0281
     25 H           2.1370   -0.1172   -0.8678 H       1  UNL1        0.0482
     26 H           1.6736   -1.1776    0.4448 H       1  UNL1        0.0482
     27 H          -0.3618   -2.2836   -1.6084 H       1  UNL1        0.0636
     28 H          -1.7985   -4.1241   -0.8247 H       1  UNL1        0.0618
     29 H          -2.9949   -3.9434    1.3429 H       1  UNL1        0.0618
     30 H          -2.7332   -1.9049    2.7363 H       1  UNL1        0.0618
     31 H          -1.3017   -0.0426    1.9494 H       1  UNL1        0.0636
     32 H          -2.6913   -0.1731   -2.4361 H       1  UNL1        0.0408
     33 H          -3.6923    1.2454   -2.1833 H       1  UNL1        0.0408
     34 H          -3.2139    0.2629   -0.7893 H       1  UNL1        0.0408
     35 H          -1.0606    3.3158   -0.6550 H       1  UNL1        0.0408
     36 H          -2.8017    3.0920   -0.7245 H       1  UNL1        0.0408
     37 H          -1.8491    2.1392    0.4302 H       1  UNL1        0.0408
@<TRIPOS>BOND
     1     1     2    1
     2     2     3    1
     3     3     4    1
     4     4     5    1
     5     5     6    1
     6     6     7   ar
     7     7     8   ar
     8     8     9   ar
     9     9    10   ar
    10    10    11   ar
    11     5    12    1
    12    12    13    2
    13    12    14    2
    14    12    15    1
    15    15    16    1
    16    15    17    1
    17    11     6   ar
    18     1    18    1
    19     1    19    1
    20     1    20    1
    21     2    21    1
    22     2    22    1
    23     3    23    1
    24     3    24    1
    25     4    25    1
    26     4    26    1
    27     7    27    1
    28     8    28    1
    29     9    29    1
    30    10    30    1
    31    11    31    1
    32    16    32    1
    33    16    33    1
    34    16    34    1
    35    17    35    1
    36    17    36    1
    37    17    37    1
