@<TRIPOS>MOLECULE
*****
 34 34 0 0 0
SMALL
GASTEIGER

@<TRIPOS>ATOM
      1 C          -3.8821    0.6785    0.8595 C.3     1  UNL1       -0.0652
      2 C          -2.7262   -0.2210    1.2708 C.3     1  UNL1       -0.0545
      3 C          -2.4230   -1.3155    0.2442 C.3     1  UNL1       -0.0374
      4 C          -1.7279   -0.8159   -1.0306 C.3     1  UNL1        0.0150
      5 N          -0.3696   -0.3089   -0.8003 N.am    1  UNL1       -0.2978
      6 C          -0.0079    0.9400   -1.4837 C.3     1  UNL1        0.0121
      7 C          -0.5966    2.1714   -0.8164 C.3     1  UNL1       -0.0493
      8 C           0.6039   -1.2544   -0.4475 C.2     1  UNL1        0.2467
      9 O           0.4045   -2.4661   -0.4178 O.2     1  UNL1       -0.2700
     10 C           1.9500   -0.7827   -0.0485 C.ar    1  UNL1        0.0384
     11 C           2.0979    0.2232    0.9122 C.ar    1  UNL1       -0.0482
     12 C           3.3770    0.6308    1.2958 C.ar    1  UNL1       -0.0413
     13 C           4.5060    0.0251    0.7324 C.ar    1  UNL1        0.0593
     14 CL          6.0566    0.5844    1.2498 Cl      1  UNL1       -0.0820
     15 C           4.3530   -0.9997   -0.2113 C.ar    1  UNL1        0.0600
     16 CL          5.7035   -1.7956   -0.9380 Cl      1  UNL1       -0.0820
     17 C           3.0739   -1.4095   -0.5957 C.ar    1  UNL1       -0.0298
     18 H          -4.0750    1.4223    1.6392 H       1  UNL1        0.0230
     19 H          -3.6719    1.2140   -0.0693 H       1  UNL1        0.0230
     20 H          -4.7978    0.0957    0.7169 H       1  UNL1        0.0230
     21 H          -1.8339    0.3834    1.4660 H       1  UNL1        0.0263
     22 H          -2.9926   -0.7016    2.2200 H       1  UNL1        0.0263
     23 H          -1.8066   -2.0782    0.7327 H       1  UNL1        0.0280
     24 H          -3.3588   -1.8134   -0.0382 H       1  UNL1        0.0280
     25 H          -2.3342   -0.0354   -1.5014 H       1  UNL1        0.0464
     26 H          -1.6573   -1.6400   -1.7512 H       1  UNL1        0.0464
     27 H           1.0779    1.0515   -1.5471 H       1  UNL1        0.0462
     28 H          -0.3601    0.8662   -2.5198 H       1  UNL1        0.0462
     29 H          -0.3010    2.2336    0.2351 H       1  UNL1        0.0245
     30 H          -1.6886    2.1651   -0.8578 H       1  UNL1        0.0245
     31 H          -0.2503    3.0773   -1.3237 H       1  UNL1        0.0245
     32 H           1.2239    0.6760    1.3742 H       1  UNL1        0.0625
     33 H           3.4886    1.4147    2.0416 H       1  UNL1        0.0633
     34 H           2.9446   -2.2152   -1.3155 H       1  UNL1        0.0640
@<TRIPOS>BOND
     1     1     2    1
     2     2     3    1
     3     3     4    1
     4     4     5    1
     5     5     6    1
     6     6     7    1
     7     5     8   am
     8     8     9    2
     9     8    10    1
    10    10    11   ar
    11    11    12   ar
    12    12    13   ar
    13    13    14    1
    14    13    15   ar
    15    15    16    1
    16    15    17   ar
    17    17    10   ar
    18     1    18    1
    19     1    19    1
    20     1    20    1
    21     2    21    1
    22     2    22    1
    23     3    23    1
    24     3    24    1
    25     4    25    1
    26     4    26    1
    27     6    27    1
    28     6    28    1
    29     7    29    1
    30     7    30    1
    31     7    31    1
    32    11    32    1
    33    12    33    1
    34    17    34    1
