@<TRIPOS>MOLECULE
*****
 33 35 0 0 0
SMALL
GASTEIGER

@<TRIPOS>ATOM
      1 C          -3.1604   -0.4872    1.1116 C.3     1  UNL1       -0.0652
      2 C          -3.9627   -0.3815   -0.1764 C.3     1  UNL1       -0.0543
      3 C          -3.4711    0.7187   -1.1201 C.3     1  UNL1       -0.0350
      4 C          -2.3308    0.3150   -2.0704 C.3     1  UNL1        0.0286
      5 N          -1.0456    0.0463   -1.4116 N.ar    1  UNL1       -0.2856
      6 C          -0.5111   -1.2619   -1.3274 C.ar    1  UNL1        0.1612
      7 S          -1.1922   -2.6765   -1.9239 S.2     1  UNL1       -0.0128
      8 N           0.7028   -1.4121   -0.6831 N.ar    1  UNL1       -0.3316
      9 C           1.3821   -0.3441   -0.1599 C.ar    1  UNL1        0.1002
     10 C           0.8596    0.9090   -0.2829 C.ar    1  UNL1        0.2165
     11 O           1.6724    1.8349    0.2876 O.2     1  UNL1       -0.4478
     12 C           2.7395    1.1409    0.7868 C.ar    1  UNL1        0.1381
     13 C           3.8214    1.7045    1.4595 C.ar    1  UNL1       -0.0173
     14 C           4.8168    0.8211    1.8928 C.ar    1  UNL1       -0.0399
     15 C           4.7130   -0.5517    1.6534 C.ar    1  UNL1        0.0418
     16 CL          5.9628   -1.6015    2.2052 Cl      1  UNL1       -0.0835
     17 C           3.6155   -1.0983    0.9743 C.ar    1  UNL1       -0.0306
     18 C           2.6050   -0.2262    0.5317 C.ar    1  UNL1        0.0458
     19 C          -0.3788    1.2092   -0.9314 C.ar    1  UNL1        0.2977
     20 O          -0.8168    2.3489   -1.0702 O.2     1  UNL1       -0.2635
     21 H          -3.1412    0.4710    1.6407 H       1  UNL1        0.0230
     22 H          -3.6176   -1.2275    1.7762 H       1  UNL1        0.0230
     23 H          -2.1302   -0.7988    0.9327 H       1  UNL1        0.0230
     24 H          -4.9987   -0.1505    0.1020 H       1  UNL1        0.0263
     25 H          -3.9893   -1.3491   -0.6882 H       1  UNL1        0.0263
     26 H          -3.2070    1.6120   -0.5436 H       1  UNL1        0.0282
     27 H          -4.3193    1.0086   -1.7543 H       1  UNL1        0.0282
     28 H          -2.6560   -0.5286   -2.6839 H       1  UNL1        0.0493
     29 H          -2.1690    1.1417   -2.7748 H       1  UNL1        0.0493
     30 H           1.0940   -2.3445   -0.6059 H       1  UNL1        0.1679
     31 H           3.8829    2.7724    1.6345 H       1  UNL1        0.0655
     32 H           5.6806    1.2174    2.4227 H       1  UNL1        0.0633
     33 H           3.5490   -2.1667    0.7960 H       1  UNL1        0.0640
@<TRIPOS>BOND
     1     1     2    1
     2     2     3    1
     3     3     4    1
     4     4     5    1
     5     5     6   ar
     6     6     7    2
     7     6     8   ar
     8     8     9   ar
     9     9    10   ar
    10    10    11   ar
    11    11    12   ar
    12    12    13   ar
    13    13    14   ar
    14    14    15   ar
    15    15    16    1
    16    15    17   ar
    17    17    18   ar
    18    10    19   ar
    19    19    20    2
    20    19     5   ar
    21    18     9   ar
    22    18    12   ar
    23     1    21    1
    24     1    22    1
    25     1    23    1
    26     2    24    1
    27     2    25    1
    28     3    26    1
    29     3    27    1
    30     4    28    1
    31     4    29    1
    32     8    30    1
    33    13    31    1
    34    14    32    1
    35    17    33    1
