@<TRIPOS>MOLECULE
*****
 40 42 0 0 0
SMALL
GASTEIGER

@<TRIPOS>ATOM
      1 C          -1.3592   -4.1826    0.4574 C.3     1  UNL1       -0.0652
      2 C          -2.0636   -3.0356    1.1654 C.3     1  UNL1       -0.0543
      3 C          -1.2921   -1.7166    1.1033 C.3     1  UNL1       -0.0351
      4 C          -1.1675   -1.1596   -0.3141 C.3     1  UNL1        0.0264
      5 N          -0.5231    0.1472   -0.3280 N.ar    1  UNL1       -0.3111
      6 C          -1.1400    1.3860   -0.2084 C.ar    1  UNL1        0.1266
      7 N          -2.5139    1.4785   -0.0044 N.am    1  UNL1       -0.2708
      8 C          -3.2601    2.5896   -0.3572 C.2     1  UNL1        0.2151
      9 C          -4.7016    2.4821    0.0701 C.3     1  UNL1        0.0125
     10 O          -2.8610    3.5480   -1.0062 O.2     1  UNL1       -0.2757
     11 C          -0.1275    2.3429   -0.2906 C.ar    1  UNL1        0.1189
     12 C          -0.2146    3.7565   -0.0877 C.1     1  UNL1        0.1048
     13 N          -0.2309    4.8964    0.1379 N.1     1  UNL1       -0.1907
     14 C           1.0962    1.6667   -0.5103 C.ar    1  UNL1        0.1275
     15 N           2.3620    2.1338   -0.6573 N.ar    1  UNL1       -0.2407
     16 C           3.2936    1.1828   -0.8324 C.ar    1  UNL1        0.0900
     17 C           4.6145    1.5781   -0.9999 C.ar    1  UNL1       -0.0342
     18 C           5.6381    0.6481   -1.1860 C.ar    1  UNL1       -0.0596
     19 C           5.3362   -0.7061   -1.2049 C.ar    1  UNL1       -0.0596
     20 C           4.0132   -1.1181   -1.0372 C.ar    1  UNL1       -0.0342
     21 C           2.9837   -0.2041   -0.8513 C.ar    1  UNL1        0.0915
     22 N           1.7329   -0.6734   -0.6945 N.ar    1  UNL1       -0.2258
     23 C           0.8245    0.3090   -0.5280 C.ar    1  UNL1        0.1625
     24 H          -1.3018   -4.0134   -0.6218 H       1  UNL1        0.0230
     25 H          -0.3432   -4.3171    0.8418 H       1  UNL1        0.0230
     26 H          -1.9082   -5.1161    0.6173 H       1  UNL1        0.0230
     27 H          -2.2013   -3.3084    2.2185 H       1  UNL1        0.0263
     28 H          -3.0646   -2.9028    0.7390 H       1  UNL1        0.0263
     29 H          -1.8080   -0.9863    1.7393 H       1  UNL1        0.0282
     30 H          -0.2945   -1.8515    1.5402 H       1  UNL1        0.0282
     31 H          -2.1484   -1.0567   -0.7905 H       1  UNL1        0.0493
     32 H          -0.5791   -1.8270   -0.9530 H       1  UNL1        0.0493
     33 H          -3.0344    0.6395    0.2189 H       1  UNL1        0.1562
     34 H          -5.0734    3.4759    0.3352 H       1  UNL1        0.0323
     35 H          -4.8085    1.8356    0.9460 H       1  UNL1        0.0323
     36 H          -5.2923    2.0754   -0.7547 H       1  UNL1        0.0323
     37 H           4.8523    2.6399   -0.9854 H       1  UNL1        0.0639
     38 H           6.6635    0.9856   -1.3152 H       1  UNL1        0.0618
     39 H           6.1229   -1.4425   -1.3491 H       1  UNL1        0.0618
     40 H           3.7792   -2.1801   -1.0522 H       1  UNL1        0.0639
@<TRIPOS>BOND
     1     1     2    1
     2     2     3    1
     3     3     4    1
     4     4     5    1
     5     5     6   ar
     6     6     7    1
     7     7     8   am
     8     8     9    1
     9     8    10    2
    10     6    11   ar
    11    11    12    1
    12    12    13    3
    13    11    14   ar
    14    14    15   ar
    15    15    16   ar
    16    16    17   ar
    17    17    18   ar
    18    18    19   ar
    19    19    20   ar
    20    20    21   ar
    21    21    22   ar
    22    22    23   ar
    23    23     5   ar
    24    23    14   ar
    25    21    16   ar
    26     1    24    1
    27     1    25    1
    28     1    26    1
    29     2    27    1
    30     2    28    1
    31     3    29    1
    32     3    30    1
    33     4    31    1
    34     4    32    1
    35     7    33    1
    36     9    34    1
    37     9    35    1
    38     9    36    1
    39    17    37    1
    40    18    38    1
    41    19    39    1
    42    20    40    1
