@<TRIPOS>MOLECULE
*****
 33 34 0 0 0
SMALL
GASTEIGER

@<TRIPOS>ATOM
      1 C          -4.9428    0.5645    0.1043 C.3     1  UNL1       -0.0652
      2 C          -3.8436   -0.0935    0.9238 C.3     1  UNL1       -0.0543
      3 C          -2.6214   -0.4918    0.0951 C.3     1  UNL1       -0.0352
      4 C          -1.8791    0.7061   -0.4957 C.3     1  UNL1        0.0247
      5 N          -0.6657    0.3088   -1.1833 N.ar    1  UNL1       -0.3301
      6 C          -0.5686    0.0531   -2.5228 C.ar    1  UNL1        0.0970
      7 N           0.6560   -0.2729   -2.8670 N.ar    1  UNL1       -0.2357
      8 C           1.3807   -0.2238   -1.7006 C.ar    1  UNL1        0.0892
      9 C           2.7419   -0.4806   -1.4847 C.ar    1  UNL1       -0.0311
     10 C           3.2758   -0.3678   -0.1855 C.ar    1  UNL1       -0.0454
     11 C           4.7403   -0.6491    0.0203 C.3     1  UNL1       -0.0394
     12 C           2.4402    0.0016    0.8914 C.ar    1  UNL1       -0.0455
     13 C           2.9889    0.1267    2.2895 C.3     1  UNL1       -0.0394
     14 C           1.0713    0.2609    0.6791 C.ar    1  UNL1       -0.0329
     15 C           0.5777    0.1400   -0.6251 C.ar    1  UNL1        0.0689
     16 H          -5.8238    0.7397    0.7302 H       1  UNL1        0.0230
     17 H          -5.2437   -0.0728   -0.7332 H       1  UNL1        0.0230
     18 H          -4.6224    1.5317   -0.2937 H       1  UNL1        0.0230
     19 H          -3.5410    0.5789    1.7351 H       1  UNL1        0.0263
     20 H          -4.2526   -0.9950    1.3954 H       1  UNL1        0.0263
     21 H          -1.9404   -1.0619    0.7398 H       1  UNL1        0.0282
     22 H          -2.9257   -1.1747   -0.7081 H       1  UNL1        0.0282
     23 H          -1.6003    1.4230    0.2847 H       1  UNL1        0.0492
     24 H          -2.5020    1.2390   -1.2226 H       1  UNL1        0.0492
     25 H          -1.4132    0.1174   -3.1964 H       1  UNL1        0.1029
     26 H           3.3607   -0.7634   -2.3297 H       1  UNL1        0.0642
     27 H           5.2462    0.2377    0.4148 H       1  UNL1        0.0278
     28 H           5.2342   -0.9186   -0.9194 H       1  UNL1        0.0278
     29 H           4.8731   -1.4858    0.7133 H       1  UNL1        0.0278
     30 H           3.3974   -0.8319    2.6246 H       1  UNL1        0.0278
     31 H           2.2107    0.4199    3.0022 H       1  UNL1        0.0278
     32 H           3.7711    0.8915    2.3238 H       1  UNL1        0.0278
     33 H           0.4203    0.5432    1.5001 H       1  UNL1        0.0641
@<TRIPOS>BOND
     1     1     2    1
     2     2     3    1
     3     3     4    1
     4     4     5    1
     5     5     6   ar
     6     6     7   ar
     7     7     8   ar
     8     8     9   ar
     9     9    10   ar
    10    10    11    1
    11    10    12   ar
    12    12    13    1
    13    12    14   ar
    14    14    15   ar
    15    15     5   ar
    16    15     8   ar
    17     1    16    1
    18     1    17    1
    19     1    18    1
    20     2    19    1
    21     2    20    1
    22     3    21    1
    23     3    22    1
    24     4    23    1
    25     4    24    1
    26     6    25    1
    27     9    26    1
    28    11    27    1
    29    11    28    1
    30    11    29    1
    31    13    30    1
    32    13    31    1
    33    13    32    1
    34    14    33    1
