@<TRIPOS>MOLECULE
*****
 31 35 0 0 0
SMALL
GASTEIGER

@<TRIPOS>ATOM
      1 SI          1.4059    1.7128   -0.5972 Si      1  UNL1        0.0000
      2 C           2.4715    0.2689   -0.0074 C.2     1  UNL1        0.0000
      3 C           1.7280   -0.8118    0.3137 C.2     1  UNL1        0.0000
      4 C           0.2748   -0.6259    0.1493 C.ar    1  UNL1        0.0000
      5 C          -0.6759   -1.6033    0.4284 C.ar    1  UNL1        0.0000
      6 C          -2.0381   -1.2886    0.2215 C.ar    1  UNL1        0.0000
      7 S          -3.3743   -2.3599    0.5065 S.2     1  UNL1        0.0000
      8 C          -4.4848   -1.1418   -0.0019 C.ar    1  UNL1        0.0000
      9 C          -5.8880   -0.9590   -0.1648 C.ar    1  UNL1        0.0000
     10 C          -6.0420    0.3287   -0.6307 C.ar    1  UNL1        0.0000
     11 N          -4.8130    0.9200   -0.7535 N.ar    1  UNL1        0.0000
     12 C          -3.8573    0.0104   -0.3653 C.ar    1  UNL1        0.0000
     13 C          -2.4348   -0.0293   -0.2518 C.ar    1  UNL1        0.0000
     14 C          -1.4572    0.9562   -0.5320 C.ar    1  UNL1        0.0000
     15 C          -0.1153    0.6383   -0.3257 C.ar    1  UNL1        0.0000
     16 C           3.8928    0.2850    0.0477 C.ar    1  UNL1        0.0000
     17 C           4.7783   -0.7571   -0.1953 C.ar    1  UNL1        0.0000
     18 C           6.1463   -0.3935   -0.0336 C.ar    1  UNL1        0.0000
     19 C           6.2836    0.9213    0.3398 C.ar    1  UNL1        0.0000
     20 S           4.7755    1.7027    0.4931 S.2     1  UNL1        0.0000
     21 H           1.4163    2.8817    0.3210 H       1  UNL1        0.0000
     22 H           1.5979    2.0376   -2.0350 H       1  UNL1        0.0000
     23 H           2.1212   -1.7553    0.6699 H       1  UNL1        0.0000
     24 H          -0.3870   -2.5831    0.7956 H       1  UNL1        0.0000
     25 H          -6.6719   -1.6768    0.0341 H       1  UNL1        0.0000
     26 H          -6.9379    0.8792   -0.8879 H       1  UNL1        0.0000
     27 H          -4.5997    1.8581   -1.0698 H       1  UNL1        0.0000
     28 H          -1.7531    1.9348   -0.8983 H       1  UNL1        0.0000
     29 H           4.4551   -1.7489   -0.4891 H       1  UNL1        0.0000
     30 H           6.9835   -1.0641   -0.1826 H       1  UNL1        0.0000
     31 H           7.1993    1.4626    0.5337 H       1  UNL1        0.0000
@<TRIPOS>BOND
     1     1     2    1
     2     2     3    2
     3     3     4    1
     4     4     5   ar
     5     5     6   ar
     6     6     7   ar
     7     7     8   ar
     8     8     9   ar
     9     9    10   ar
    10    10    11   ar
    11    11    12   ar
    12    12    13   ar
    13    13    14   ar
    14    14    15   ar
    15     2    16    1
    16    16    17   ar
    17    17    18   ar
    18    18    19   ar
    19    19    20   ar
    20    15     1    1
    21    20    16   ar
    22    15     4   ar
    23    13     6   ar
    24    12     8   ar
    25     1    21    1
    26     1    22    1
    27     3    23    1
    28     5    24    1
    29     9    25    1
    30    10    26    1
    31    11    27    1
    32    14    28    1
    33    17    29    1
    34    18    30    1
    35    19    31    1
