@<TRIPOS>MOLECULE
*****
 46 53 0 0 0
SMALL
GASTEIGER

@<TRIPOS>ATOM
      1 SI          6.3199   -1.3049    0.2428 Si      1  UNL1        0.0000
      2 C           7.8919   -0.3135    0.4697 C.2     1  UNL1        0.0000
      3 C           7.6191    1.0008    0.5430 C.2     1  UNL1        0.0000
      4 C           6.2096    1.3462    0.4335 C.2     1  UNL1        0.0000
      5 C           5.3498    0.3121    0.2743 C.2     1  UNL1        0.0000
      6 C           3.8947    0.4212    0.1402 C.ar    1  UNL1        0.0000
      7 C           3.0299   -0.6506    0.0160 C.ar    1  UNL1        0.0000
      8 C           1.6391   -0.4129   -0.1053 C.ar    1  UNL1        0.0000
      9 C           0.7289   -1.4942   -0.2773 C.ar    1  UNL1        0.0000
     10 N           1.0812   -2.7892   -0.3894 N.ar    1  UNL1        0.0000
     11 S          -0.2964   -3.6423   -0.6930 S.2     1  UNL1        0.0000
     12 N          -1.4003   -2.4220   -0.6485 N.ar    1  UNL1        0.0000
     13 C          -0.7624   -1.2743   -0.3518 C.ar    1  UNL1        0.0000
     14 C          -1.3790    0.0297   -0.2053 C.ar    1  UNL1        0.0000
     15 C          -0.3727    1.0856   -0.2506 C.ar    1  UNL1        0.0000
     16 C          -0.9526    2.3823   -0.5056 C.ar    1  UNL1        0.0000
     17 N          -0.2795    3.5369   -0.6633 N.ar    1  UNL1        0.0000
     18 S          -1.3620    4.7242   -1.0268 S.2     1  UNL1        0.0000
     19 N          -2.7575    3.8497   -1.0022 N.ar    1  UNL1        0.0000
     20 C          -2.4312    2.5801   -0.6905 C.ar    1  UNL1        0.0000
     21 C          -3.3556    1.5056   -0.5211 C.ar    1  UNL1        0.0000
     22 C          -4.7265    1.7593   -0.7201 C.ar    1  UNL1        0.0000
     23 C          -5.6623    0.7697   -0.4800 C.ar    1  UNL1        0.0000
     24 C          -5.2638   -0.4428    0.0709 C.ar    1  UNL1        0.0000
     25 C          -6.2583   -1.3682    0.4322 C.ar    1  UNL1        0.0000
     26 C          -5.9369   -2.5416    1.1033 C.ar    1  UNL1        0.0000
     27 C          -4.6187   -2.7813    1.4460 C.ar    1  UNL1        0.0000
     28 C          -3.6239   -1.8714    1.0688 C.ar    1  UNL1        0.0000
     29 C          -3.8825   -0.7055    0.3056 C.ar    1  UNL1        0.0000
     30 C          -2.8549    0.2360   -0.1388 C.ar    1  UNL1        0.0000
     31 C           1.0843    0.8808   -0.1162 C.ar    1  UNL1        0.0000
     32 C           2.0695    1.8761    0.0178 C.ar    1  UNL1        0.0000
     33 N           3.4118    1.6805    0.1442 N.ar    1  UNL1        0.0000
     34 H           6.0216   -2.1721    1.4100 H       1  UNL1        0.0000
     35 H           6.2616   -1.9831   -1.0760 H       1  UNL1        0.0000
     36 H           8.8623   -0.7801    0.5273 H       1  UNL1        0.0000
     37 H           8.3704    1.7701    0.6732 H       1  UNL1        0.0000
     38 H           5.8988    2.3845    0.4803 H       1  UNL1        0.0000
     39 H           3.3912   -1.6733    0.0065 H       1  UNL1        0.0000
     40 H          -5.0709    2.7337   -1.0632 H       1  UNL1        0.0000
     41 H          -6.7135    0.9883   -0.6556 H       1  UNL1        0.0000
     42 H          -7.3060   -1.1661    0.2171 H       1  UNL1        0.0000
     43 H          -6.7162   -3.2429    1.3874 H       1  UNL1        0.0000
     44 H          -4.3530   -3.6692    2.0137 H       1  UNL1        0.0000
     45 H          -2.6204   -2.0838    1.4267 H       1  UNL1        0.0000
     46 H           1.8216    2.9319    0.0593 H       1  UNL1        0.0000
@<TRIPOS>BOND
     1     1     2    1
     2     2     3    2
     3     3     4    1
     4     4     5    2
     5     5     6    1
     6     6     7   ar
     7     7     8   ar
     8     8     9   ar
     9     9    10   ar
    10    10    11   ar
    11    11    12   ar
    12    12    13   ar
    13    13    14   ar
    14    14    15   ar
    15    15    16   ar
    16    16    17   ar
    17    17    18   ar
    18    18    19   ar
    19    19    20   ar
    20    20    21   ar
    21    21    22   ar
    22    22    23   ar
    23    23    24   ar
    24    24    25   ar
    25    25    26   ar
    26    26    27   ar
    27    27    28   ar
    28    28    29   ar
    29    29    30   ar
    30    15    31   ar
    31    31    32   ar
    32    32    33   ar
    33     5     1    1
    34    33     6   ar
    35    31     8   ar
    36    13     9   ar
    37    30    14   ar
    38    20    16   ar
    39    30    21   ar
    40    29    24   ar
    41     1    34    1
    42     1    35    1
    43     2    36    1
    44     3    37    1
    45     4    38    1
    46     7    39    1
    47    22    40    1
    48    23    41    1
    49    25    42    1
    50    26    43    1
    51    27    44    1
    52    28    45    1
    53    32    46    1
