@<TRIPOS>MOLECULE
*****
 44 45 0 0 0
SMALL
GASTEIGER

@<TRIPOS>ATOM
      1 C          -8.4766    0.6275    0.7254 C.3     1  UNL1       -0.0652
      2 C          -7.0040    0.8279    0.4017 C.3     1  UNL1       -0.0528
      3 C          -6.4322   -0.3734   -0.3578 C.3     1  UNL1       -0.0189
      4 C          -4.9594   -0.1795   -0.7206 C.3     1  UNL1        0.0896
      5 O          -4.1905   -0.1247    0.4872 O.3     1  UNL1       -0.4920
      6 C          -2.8476   -0.0647    0.2356 C.ar    1  UNL1        0.1205
      7 C          -2.0511   -1.0838    0.7471 C.ar    1  UNL1       -0.0193
      8 C          -0.6669   -1.0551    0.5444 C.ar    1  UNL1       -0.0476
      9 C          -0.0448    0.0024   -0.1508 C.ar    1  UNL1        0.0194
     10 C           1.4175    0.0328   -0.3566 C.ar    1  UNL1        0.1618
     11 N           1.9512    1.1101   -0.9626 N.ar    1  UNL1       -0.2347
     12 C           3.2901    1.1020   -1.1245 C.ar    1  UNL1        0.0473
     13 C           4.1114    0.0752   -0.7040 C.ar    1  UNL1        0.1164
     14 C           5.5584    0.2165   -0.9371 C.2     1  UNL1        0.3440
     15 O           6.0243    1.0055   -1.7437 O.2     1  UNL1       -0.2448
     16 O           6.2714   -0.5961   -0.1172 O.3     1  UNL1       -0.4613
     17 C           7.7011   -0.5042   -0.2341 C.3     1  UNL1        0.0900
     18 C           8.2280    0.5953    0.6684 C.3     1  UNL1       -0.0306
     19 C           3.4734   -0.9967   -0.0966 C.ar    1  UNL1        0.1341
     20 N           4.1384   -2.1638    0.3095 N.pl3   1  UNL1       -0.3424
     21 N           2.1382   -1.0234    0.0696 N.ar    1  UNL1       -0.2122
     22 C          -0.8784    1.0340   -0.6300 C.ar    1  UNL1       -0.0476
     23 C          -2.2649    1.0064   -0.4361 C.ar    1  UNL1       -0.0193
     24 H          -9.0659    0.4994   -0.1892 H       1  UNL1        0.0230
     25 H          -8.8688    1.4987    1.2622 H       1  UNL1        0.0230
     26 H          -8.6236   -0.2551    1.3572 H       1  UNL1        0.0230
     27 H          -6.4520    0.9862    1.3355 H       1  UNL1        0.0264
     28 H          -6.8886    1.7360   -0.2025 H       1  UNL1        0.0264
     29 H          -6.5379   -1.2718    0.2642 H       1  UNL1        0.0298
     30 H          -7.0083   -0.5349   -1.2772 H       1  UNL1        0.0298
     31 H          -4.8449    0.7433   -1.3030 H       1  UNL1        0.0696
     32 H          -4.6302   -1.0322   -1.3302 H       1  UNL1        0.0696
     33 H          -2.5019   -1.9058    1.2979 H       1  UNL1        0.0654
     34 H          -0.0654   -1.8715    0.9454 H       1  UNL1        0.0626
     35 H           3.6913    1.9860   -1.6172 H       1  UNL1        0.0840
     36 H           8.1100   -1.4686    0.0842 H       1  UNL1        0.0695
     37 H           8.0062   -0.3525   -1.2758 H       1  UNL1        0.0695
     38 H           9.3189    0.6525    0.6134 H       1  UNL1        0.0262
     39 H           7.9374    0.4072    1.7080 H       1  UNL1        0.0262
     40 H           7.8100    1.5684    0.3906 H       1  UNL1        0.0262
     41 H           4.9517   -1.9123    0.8715 H       1  UNL1        0.1437
     42 H           4.4915   -2.6593   -0.5053 H       1  UNL1        0.1437
     43 H          -0.4453    1.8823   -1.1590 H       1  UNL1        0.0626
     44 H          -2.8708    1.8337   -0.7951 H       1  UNL1        0.0654
@<TRIPOS>BOND
     1     1     2    1
     2     2     3    1
     3     3     4    1
     4     4     5    1
     5     5     6    1
     6     6     7   ar
     7     7     8   ar
     8     8     9   ar
     9     9    10    1
    10    10    11   ar
    11    11    12   ar
    12    12    13   ar
    13    13    14    1
    14    14    15    2
    15    14    16    1
    16    16    17    1
    17    17    18    1
    18    13    19   ar
    19    19    20    1
    20    19    21   ar
    21     9    22   ar
    22    22    23   ar
    23    23     6   ar
    24    21    10   ar
    25     1    24    1
    26     1    25    1
    27     1    26    1
    28     2    27    1
    29     2    28    1
    30     3    29    1
    31     3    30    1
    32     4    31    1
    33     4    32    1
    34     7    33    1
    35     8    34    1
    36    12    35    1
    37    17    36    1
    38    17    37    1
    39    18    38    1
    40    18    39    1
    41    18    40    1
    42    20    41    1
    43    20    42    1
    44    22    43    1
    45    23    44    1
