@<TRIPOS>MOLECULE
*****
 45 45 0 0 0
SMALL
GASTEIGER

@<TRIPOS>ATOM
      1 C          -8.1876   -0.4669   -0.0901 C.3     1  UNL1       -0.0652
      2 C          -6.6767   -0.5733   -0.2258 C.3     1  UNL1       -0.0528
      3 C          -6.1358    0.4277   -1.2495 C.3     1  UNL1       -0.0189
      4 C          -4.6219    0.3126   -1.4270 C.3     1  UNL1        0.0896
      5 O          -3.9858    0.6525   -0.1957 O.3     1  UNL1       -0.4920
      6 C          -2.6216    0.5825   -0.1582 C.ar    1  UNL1        0.1207
      7 C          -2.0557    0.8793    1.0835 C.ar    1  UNL1       -0.0165
      8 C          -0.6689    0.8478    1.2690 C.ar    1  UNL1       -0.0165
      9 C           0.1679    0.5188    0.2051 C.ar    1  UNL1        0.1208
     10 O           1.5327    0.4508    0.2431 O.3     1  UNL1       -0.4906
     11 C           2.1637    0.7681    1.4902 C.3     1  UNL1        0.1037
     12 C           3.6781    0.6424    1.3015 C.3     1  UNL1        0.0526
     13 N           4.0232   -0.7644    1.0757 N.3     1  UNL1       -0.1765
     14 S           5.5711   -1.3099    1.3129 S.O2    1  UNL1        0.0966
     15 O           5.5213   -2.7364    1.1001 O.2     1  UNL1       -0.1411
     16 O           6.0736   -0.7364    2.5369 O.2     1  UNL1       -0.1411
     17 N           6.3660   -0.6236    0.0117 N.3     1  UNL1       -0.1727
     18 C           6.7973    0.7756    0.0720 C.3     1  UNL1        0.0096
     19 C           6.0465   -1.1061   -1.3361 C.3     1  UNL1        0.0096
     20 C          -0.3979    0.2224   -1.0371 C.ar    1  UNL1       -0.0165
     21 C          -1.7849    0.2535   -1.2221 C.ar    1  UNL1       -0.0165
     22 H          -8.5539   -1.1908    0.6446 H       1  UNL1        0.0230
     23 H          -8.4820    0.5336    0.2425 H       1  UNL1        0.0230
     24 H          -8.6827   -0.6718   -1.0446 H       1  UNL1        0.0230
     25 H          -6.2182   -0.3985    0.7541 H       1  UNL1        0.0264
     26 H          -6.4143   -1.5933   -0.5296 H       1  UNL1        0.0264
     27 H          -6.6225    0.2646   -2.2180 H       1  UNL1        0.0298
     28 H          -6.3848    1.4434   -0.9184 H       1  UNL1        0.0298
     29 H          -4.3652   -0.7124   -1.7208 H       1  UNL1        0.0696
     30 H          -4.3088    1.0119   -2.2115 H       1  UNL1        0.0696
     31 H          -2.7031    1.1359    1.9191 H       1  UNL1        0.0655
     32 H          -0.2845    1.0828    2.2555 H       1  UNL1        0.0655
     33 H           1.9286    1.8016    1.7702 H       1  UNL1        0.0710
     34 H           1.8276    0.0766    2.2725 H       1  UNL1        0.0710
     35 H           3.9787    1.2264    0.4272 H       1  UNL1        0.0475
     36 H           4.1834    1.0261    2.1923 H       1  UNL1        0.0475
     37 H           3.5241   -1.2434    0.3285 H       1  UNL1        0.1492
     38 H           6.8932    1.1381    1.0984 H       1  UNL1        0.0408
     39 H           6.1000    1.4248   -0.4646 H       1  UNL1        0.0408
     40 H           7.7843    0.8684   -0.3928 H       1  UNL1        0.0408
     41 H           5.0935   -0.6921   -1.6781 H       1  UNL1        0.0408
     42 H           6.8292   -0.8017   -2.0387 H       1  UNL1        0.0408
     43 H           5.9997   -2.1980   -1.3677 H       1  UNL1        0.0408
     44 H           0.2464   -0.0363   -1.8739 H       1  UNL1        0.0655
     45 H          -2.1733    0.0168   -2.2065 H       1  UNL1        0.0655
@<TRIPOS>BOND
     1     1     2    1
     2     2     3    1
     3     3     4    1
     4     4     5    1
     5     5     6    1
     6     6     7   ar
     7     7     8   ar
     8     8     9   ar
     9     9    10    1
    10    10    11    1
    11    11    12    1
    12    12    13    1
    13    13    14    1
    14    14    15    2
    15    14    16    2
    16    14    17    1
    17    17    18    1
    18    17    19    1
    19     9    20   ar
    20    20    21   ar
    21    21     6   ar
    22     1    22    1
    23     1    23    1
    24     1    24    1
    25     2    25    1
    26     2    26    1
    27     3    27    1
    28     3    28    1
    29     4    29    1
    30     4    30    1
    31     7    31    1
    32     8    32    1
    33    11    33    1
    34    11    34    1
    35    12    35    1
    36    12    36    1
    37    13    37    1
    38    18    38    1
    39    18    39    1
    40    18    40    1
    41    19    41    1
    42    19    42    1
    43    19    43    1
    44    20    44    1
    45    21    45    1
