@<TRIPOS>MOLECULE
*****
 48 47 0 0 0
SMALL
GASTEIGER

@<TRIPOS>ATOM
      1 C           7.1787    1.9439    0.0709 C.3     0  UNK0       -0.0652
      2 C           5.9396    1.1212   -0.2455 C.3     0  UNK0       -0.0538
      3 C           6.0465   -0.2937    0.3283 C.3     0  UNK0       -0.0297
      4 C           4.8256   -1.1452   -0.0095 C.3     0  UNK0        0.0477
      5 O           3.6746   -0.5820    0.6151 O.3     0  UNK0       -0.3797
      6 C           2.4726   -1.3072    0.3531 C.3     0  UNK0        0.0491
      7 C           1.8606   -0.9017   -0.9860 C.3     0  UNK0       -0.0138
      8 C           0.5681   -1.6582   -1.2839 C.3     0  UNK0        0.0151
      9 N          -0.5028   -1.3547   -0.3552 N.am    0  UNK0       -0.2993
     10 C          -1.1997   -0.1768   -0.4597 C.2     0  UNK0        0.3003
     11 O          -0.9540    0.7090   -1.2646 O.2     0  UNK0       -0.2528
     12 N          -2.2146   -0.1278    0.4563 N.am    1  LEU1       -0.2862
     13 CA         -3.0330    1.0758    0.6007 C.3     1  LEU1        0.1217
     14 CB         -4.1144    1.1961   -0.4865 C.3     1  LEU1       -0.0217
     15 CG         -5.3159    0.2282   -0.3905 C.3     1  LEU1       -0.0445
     16 CD1        -6.3385    0.5813   -1.4768 C.3     1  LEU1       -0.0626
     17 CD2        -4.9258   -1.2436   -0.5222 C.3     1  LEU1       -0.0626
     18 C          -3.6107    1.1082    2.0145 C.2     1  LEU1        0.3253
     19 O          -3.4142    0.2724    2.8863 O.2     1  LEU1       -0.2489
     20 OXT        -4.3597    2.1980    2.2710 O.3     1  LEU1       -0.4793
     21 H           8.0754    1.4825   -0.3551 H       0  UNK0        0.0230
     22 H           7.0827    2.9502   -0.3486 H       0  UNK0        0.0230
     23 H           7.3211    2.0385    1.1521 H       0  UNK0        0.0230
     24 H           5.0598    1.6306    0.1640 H       0  UNK0        0.0263
     25 H           5.8090    1.0720   -1.3328 H       0  UNK0        0.0263
     26 H           6.1521   -0.2279    1.4180 H       0  UNK0        0.0287
     27 H           6.9447   -0.7843   -0.0642 H       0  UNK0        0.0287
     28 H           4.6907   -1.1917   -1.0948 H       0  UNK0        0.0560
     29 H           4.9788   -2.1619    0.3695 H       0  UNK0        0.0560
     30 H           2.6595   -2.3865    0.4021 H       0  UNK0        0.0560
     31 H           1.7791   -1.0607    1.1641 H       0  UNK0        0.0560
     32 H           2.5736   -1.0987   -1.7941 H       0  UNK0        0.0302
     33 H           1.6948    0.1821   -0.9932 H       0  UNK0        0.0302
     34 H           0.2239   -1.4212   -2.2971 H       0  UNK0        0.0463
     35 H           0.7427   -2.7386   -1.2353 H       0  UNK0        0.0463
     36 H          -1.0722   -2.1313   -0.0497 H       0  UNK0        0.1502
     37 H          -2.0366   -0.6354    1.3157 H       1  LEU1        0.1511
     38 HA         -2.3515    1.9330    0.5243 H       1  LEU1        0.0615
     39 HB1        -3.6500    1.0916   -1.4756 H       1  LEU1        0.0291
     40 HB2        -4.5092    2.2207   -0.4471 H       1  LEU1        0.0291
     41 HG         -5.8118    0.3642    0.5781 H       1  LEU1        0.0296
     42 HD11       -6.6701    1.6204   -1.3772 H       1  LEU1        0.0232
     43 HD12       -7.2248   -0.0576   -1.4005 H       1  LEU1        0.0232
     44 HD13       -5.9140    0.4542   -2.4786 H       1  LEU1        0.0232
     45 HD21       -4.3610   -1.5855    0.3495 H       1  LEU1        0.0232
     46 HD22       -4.3218   -1.4175   -1.4190 H       1  LEU1        0.0232
     47 HD23       -5.8166   -1.8780   -0.5888 H       1  LEU1        0.0232
     48 HXT        -4.6309    2.0937    3.2073 H       1  LEU1        0.2951
@<TRIPOS>BOND
     1     1     2    1
     2     2     3    1
     3     3     4    1
     4     4     5    1
     5     5     6    1
     6     6     7    1
     7     7     8    1
     8     8     9    1
     9     9    10   am
    10    10    11    2
    11    10    12   am
    12    12    13    1
    13    13    14    1
    14    14    15    1
    15    15    16    1
    16    15    17    1
    17    13    18    1
    18    18    19    2
    19    18    20    1
    20     1    21    1
    21     1    22    1
    22     1    23    1
    23     2    24    1
    24     2    25    1
    25     3    26    1
    26     3    27    1
    27     4    28    1
    28     4    29    1
    29     6    30    1
    30     6    31    1
    31     7    32    1
    32     7    33    1
    33     8    34    1
    34     8    35    1
    35     9    36    1
    36    12    37    1
    37    13    38    1
    38    14    39    1
    39    14    40    1
    40    15    41    1
    41    16    42    1
    42    16    43    1
    43    16    44    1
    44    17    45    1
    45    17    46    1
    46    17    47    1
    47    20    48    1
