@<TRIPOS>MOLECULE
*****
 39 40 0 0 0
SMALL
GASTEIGER

@<TRIPOS>ATOM
      1 C          -6.1586    1.9345    0.6518 C.3     1  UNL1       -0.0638
      2 C          -5.1974    1.0138   -0.0816 C.3     1  UNL1       -0.0395
      3 C          -4.5740   -0.0133    0.8637 C.3     1  UNL1        0.0229
      4 N          -3.6567   -0.8911    0.1553 N.am    1  UNL1       -0.2321
      5 C          -4.0809   -2.0810   -0.3627 C.2     1  UNL1        0.2814
      6 O          -5.2191   -2.5199   -0.3662 O.2     1  UNL1       -0.2623
      7 S          -2.7323   -2.9739   -1.0247 S.3     1  UNL1       -0.0539
      8 C          -1.6078   -1.5479   -0.9033 C.3     1  UNL1        0.0989
      9 C          -0.2568   -1.9515   -0.3265 C.3     1  UNL1        0.0450
     10 C           0.8212   -0.9510   -0.7130 C.2     1  UNL1        0.2187
     11 O           0.6670   -0.1719   -1.6462 O.2     1  UNL1       -0.2754
     12 N           1.9590   -1.0973    0.0634 N.am    1  UNL1       -0.2855
     13 C           3.1588   -0.3597   -0.0226 C.ar    1  UNL1        0.0334
     14 C           3.3808    0.6709   -0.9353 C.ar    1  UNL1       -0.0402
     15 C           4.6031    1.3536   -0.9538 C.ar    1  UNL1       -0.0571
     16 C           5.6195    1.0239   -0.0523 C.ar    1  UNL1       -0.0503
     17 C           6.9384    1.7360   -0.0984 C.3     1  UNL1       -0.0397
     18 C           5.4037   -0.0173    0.8539 C.ar    1  UNL1       -0.0571
     19 C           4.1821   -0.6983    0.8716 C.ar    1  UNL1       -0.0402
     20 C          -2.3249   -0.5760    0.0147 C.2     1  UNL1        0.2363
     21 O          -1.7750    0.3753    0.5590 O.2     1  UNL1       -0.2739
     22 H          -6.5926    2.6605   -0.0427 H       1  UNL1        0.0230
     23 H          -6.9773    1.3662    1.1047 H       1  UNL1        0.0230
     24 H          -5.6442    2.4876    1.4441 H       1  UNL1        0.0230
     25 H          -4.4104    1.6136   -0.5542 H       1  UNL1        0.0278
     26 H          -5.7318    0.5015   -0.8905 H       1  UNL1        0.0278
     27 H          -4.0306    0.4998    1.6655 H       1  UNL1        0.0470
     28 H          -5.3611   -0.6180    1.3291 H       1  UNL1        0.0470
     29 H          -1.5418   -1.0955   -1.8976 H       1  UNL1        0.0517
     30 H           0.0712   -2.9178   -0.7304 H       1  UNL1        0.0374
     31 H          -0.3018   -2.0326    0.7667 H       1  UNL1        0.0374
     32 H           1.9355   -1.8062    0.7852 H       1  UNL1        0.1548
     33 H           2.6237    0.9744   -1.6512 H       1  UNL1        0.0636
     34 H           4.7497    2.1491   -1.6814 H       1  UNL1        0.0621
     35 H           6.8110    2.7733   -0.4254 H       1  UNL1        0.0278
     36 H           7.6146    1.2266   -0.7918 H       1  UNL1        0.0278
     37 H           7.4026    1.7632    0.8931 H       1  UNL1        0.0278
     38 H           6.1843   -0.3055    1.5544 H       1  UNL1        0.0621
     39 H           4.0488   -1.4982    1.5948 H       1  UNL1        0.0636
@<TRIPOS>BOND
     1     1     2    1
     2     2     3    1
     3     3     4    1
     4     4     5   am
     5     5     6    2
     6     5     7    1
     7     7     8    1
     8     8     9    1
     9     9    10    1
    10    10    11    2
    11    10    12   am
    12    12    13    1
    13    13    14   ar
    14    14    15   ar
    15    15    16   ar
    16    16    17    1
    17    16    18   ar
    18    18    19   ar
    19     8    20    1
    20    20    21    2
    21    20     4   am
    22    19    13   ar
    23     1    22    1
    24     1    23    1
    25     1    24    1
    26     2    25    1
    27     2    26    1
    28     3    27    1
    29     3    28    1
    30     8    29    1
    31     9    30    1
    32     9    31    1
    33    12    32    1
    34    14    33    1
    35    15    34    1
    36    17    35    1
    37    17    36    1
    38    17    37    1
    39    18    38    1
    40    19    39    1
