@<TRIPOS>MOLECULE
*****
 35 38 0 0 0
SMALL
GASTEIGER

@<TRIPOS>ATOM
      1 C          -2.3432    3.3038   -0.6443 C.3     1  UNL1       -0.0637
      2 C          -1.7142    1.9295   -0.8054 C.3     1  UNL1       -0.0377
      3 C          -1.1637    1.4116    0.5217 C.3     1  UNL1        0.0264
      4 N          -0.5477    0.1053    0.3997 N.ar    1  UNL1       -0.3068
      5 C          -1.1488   -1.1297    0.2317 C.ar    1  UNL1        0.1514
      6 C          -2.5565   -1.4265    0.1801 C.ar    1  UNL1        0.0547
      7 C          -3.1493   -2.3246   -0.6900 C.ar    1  UNL1       -0.0440
      8 C          -4.5564   -2.4378   -0.4959 C.ar    1  UNL1       -0.0540
      9 C          -4.9942   -1.6416    0.5371 C.ar    1  UNL1       -0.0236
     10 S          -3.7111   -0.7806    1.2667 S.2     1  UNL1       -0.0936
     11 N          -0.2418   -2.0766    0.0416 N.ar    1  UNL1       -0.2061
     12 C           0.9632   -1.4500    0.1327 C.ar    1  UNL1        0.1985
     13 N           2.1820   -2.0201    0.0144 N.ar    1  UNL1       -0.2231
     14 C           3.2008   -1.1513    0.1328 C.ar    1  UNL1        0.0917
     15 C           4.4948   -1.6448    0.0296 C.ar    1  UNL1       -0.0342
     16 C           5.6079   -0.8102    0.1394 C.ar    1  UNL1       -0.0596
     17 C           5.4262    0.5483    0.3569 C.ar    1  UNL1       -0.0596
     18 C           4.1327    1.0617    0.4631 C.ar    1  UNL1       -0.0342
     19 C           3.0139    0.2458    0.3567 C.ar    1  UNL1        0.0917
     20 N           1.7975    0.8151    0.4698 N.ar    1  UNL1       -0.2245
     21 C           0.8079   -0.0923    0.3525 C.ar    1  UNL1        0.1806
     22 H          -2.7285    3.6594   -1.6050 H       1  UNL1        0.0230
     23 H          -3.1761    3.2724    0.0653 H       1  UNL1        0.0230
     24 H          -1.6096    4.0312   -0.2824 H       1  UNL1        0.0230
     25 H          -0.9080    1.9850   -1.5469 H       1  UNL1        0.0280
     26 H          -2.4636    1.2390   -1.2083 H       1  UNL1        0.0280
     27 H          -0.4070    2.1074    0.9039 H       1  UNL1        0.0493
     28 H          -1.9348    1.3604    1.2933 H       1  UNL1        0.0493
     29 H          -2.5880   -2.8772   -1.4355 H       1  UNL1        0.0630
     30 H          -5.2080   -3.0795   -1.0764 H       1  UNL1        0.0623
     31 H          -6.0040   -1.5355    0.9095 H       1  UNL1        0.0693
     32 H           4.6395   -2.7097   -0.1410 H       1  UNL1        0.0639
     33 H           6.6094   -1.2248    0.0546 H       1  UNL1        0.0618
     34 H           6.2843    1.2101    0.4445 H       1  UNL1        0.0618
     35 H           3.9940    2.1269    0.6338 H       1  UNL1        0.0639
@<TRIPOS>BOND
     1     1     2    1
     2     2     3    1
     3     3     4    1
     4     4     5   ar
     5     5     6    1
     6     6     7   ar
     7     7     8   ar
     8     8     9   ar
     9     9    10   ar
    10     5    11   ar
    11    11    12   ar
    12    12    13   ar
    13    13    14   ar
    14    14    15   ar
    15    15    16   ar
    16    16    17   ar
    17    17    18   ar
    18    18    19   ar
    19    19    20   ar
    20    20    21   ar
    21    21     4   ar
    22    10     6   ar
    23    21    12   ar
    24    19    14   ar
    25     1    22    1
    26     1    23    1
    27     1    24    1
    28     2    25    1
    29     2    26    1
    30     3    27    1
    31     3    28    1
    32     7    29    1
    33     8    30    1
    34     9    31    1
    35    15    32    1
    36    16    33    1
    37    17    34    1
    38    18    35    1
