@<TRIPOS>MOLECULE
*****
 38 40 0 0 0
SMALL
GASTEIGER

@<TRIPOS>ATOM
      1 C          -2.1588   -2.9270   -2.2918 C.3     1  UNL1       -0.0637
      2 C          -2.2261   -2.0698   -1.0387 C.3     1  UNL1       -0.0378
      3 C          -1.2474   -0.9009   -1.1124 C.3     1  UNL1        0.0247
      4 N          -1.2881   -0.0763    0.0823 N.ar    1  UNL1       -0.3263
      5 C          -0.5354   -0.2403    1.2268 C.ar    1  UNL1        0.1280
      6 C           0.4563   -1.3341    1.4473 C.3     1  UNL1        0.0702
      7 N           1.7753   -0.7641    1.3230 N.am    1  UNL1       -0.3038
      8 C           2.5693   -0.9550    0.2173 C.2     1  UNL1        0.2510
      9 O           2.2490   -1.7419   -0.6722 O.2     1  UNL1       -0.2696
     10 C           3.7940   -0.1661    0.1655 C.ar    1  UNL1        0.0738
     11 C           4.7500   -0.1928   -0.8349 C.ar    1  UNL1       -0.0425
     12 C           5.8306    0.7025   -0.5894 C.ar    1  UNL1       -0.0540
     13 C           5.6685    1.3885    0.5925 C.ar    1  UNL1       -0.0236
     14 S           4.2237    0.9513    1.3943 S.2     1  UNL1       -0.0921
     15 N          -0.7964    0.7178    2.0986 N.ar    1  UNL1       -0.2307
     16 C          -1.7554    1.5048    1.5162 C.ar    1  UNL1        0.0894
     17 C          -2.3916    2.6500    2.0175 C.ar    1  UNL1       -0.0342
     18 C          -3.3542    3.2882    1.2267 C.ar    1  UNL1       -0.0596
     19 C          -3.6768    2.7952   -0.0384 C.ar    1  UNL1       -0.0597
     20 C          -3.0510    1.6544   -0.5549 C.ar    1  UNL1       -0.0361
     21 C          -2.0896    1.0316    0.2518 C.ar    1  UNL1        0.0689
     22 H          -2.8675   -3.7581   -2.2212 H       1  UNL1        0.0230
     23 H          -2.4098   -2.3410   -3.1817 H       1  UNL1        0.0230
     24 H          -1.1564   -3.3457   -2.4268 H       1  UNL1        0.0230
     25 H          -3.2491   -1.6962   -0.9108 H       1  UNL1        0.0280
     26 H          -2.0074   -2.6927   -0.1633 H       1  UNL1        0.0280
     27 H          -1.4740   -0.2587   -1.9711 H       1  UNL1        0.0492
     28 H          -0.2216   -1.2509   -1.2518 H       1  UNL1        0.0492
     29 H           0.3214   -2.1810    0.7705 H       1  UNL1        0.0542
     30 H           0.3626   -1.7058    2.4730 H       1  UNL1        0.0542
     31 H           2.0036   -0.0021    1.9504 H       1  UNL1        0.1495
     32 H           4.6693   -0.8334   -1.7062 H       1  UNL1        0.0630
     33 H           6.6816    0.8358   -1.2464 H       1  UNL1        0.0623
     34 H           6.3292    2.1273    1.0257 H       1  UNL1        0.0693
     35 H          -2.1359    3.0251    3.0019 H       1  UNL1        0.0639
     36 H          -3.8543    4.1763    1.6051 H       1  UNL1        0.0618
     37 H          -4.4289    3.3072   -0.6354 H       1  UNL1        0.0618
     38 H          -3.3085    1.2778   -1.5387 H       1  UNL1        0.0639
@<TRIPOS>BOND
     1     1     2    1
     2     2     3    1
     3     3     4    1
     4     4     5   ar
     5     5     6    1
     6     6     7    1
     7     7     8   am
     8     8     9    2
     9     8    10    1
    10    10    11   ar
    11    11    12   ar
    12    12    13   ar
    13    13    14   ar
    14     5    15   ar
    15    15    16   ar
    16    16    17   ar
    17    17    18   ar
    18    18    19   ar
    19    19    20   ar
    20    20    21   ar
    21    21     4   ar
    22    14    10   ar
    23    21    16   ar
    24     1    22    1
    25     1    23    1
    26     1    24    1
    27     2    25    1
    28     2    26    1
    29     3    27    1
    30     3    28    1
    31     6    29    1
    32     6    30    1
    33     7    31    1
    34    11    32    1
    35    12    33    1
    36    13    34    1
    37    17    35    1
    38    18    36    1
    39    19    37    1
    40    20    38    1
