@<TRIPOS>MOLECULE
*****
 41 44 0 0 0
SMALL
GASTEIGER

@<TRIPOS>ATOM
      1 C          -3.2831    3.8207   -0.3323 C.3     1  UNL1       -0.0637
      2 C          -2.5642    2.6080    0.2354 C.3     1  UNL1       -0.0377
      3 C          -2.8373    1.3589   -0.5985 C.3     1  UNL1        0.0262
      4 N          -2.1665    0.1866   -0.0670 N.ar    1  UNL1       -0.3116
      5 C          -0.8560   -0.1931   -0.2923 C.ar    1  UNL1        0.2005
      6 N          -0.0331    0.5188   -1.1027 N.pl3   1  UNL1       -0.2908
      7 C           1.3073    0.2896   -1.3483 C.2     1  UNL1        0.0056
      8 C           2.3114   -0.1795   -0.5987 C.2     1  UNL1        0.0161
      9 C           2.3100   -0.5520    0.8403 C.2     1  UNL1        0.0372
     10 N           3.4837   -0.9209    1.2829 N.2     1  UNL1       -0.2543
     11 C           4.3413   -0.8297    0.1634 C.ar    1  UNL1        0.0716
     12 C           5.6912   -1.1314    0.1537 C.ar    1  UNL1       -0.0357
     13 C           6.3974   -0.9819   -1.0437 C.ar    1  UNL1       -0.0597
     14 C           5.7488   -0.5360   -2.2088 C.ar    1  UNL1       -0.0611
     15 C           4.3842   -0.2314   -2.1963 C.ar    1  UNL1       -0.0519
     16 C           3.6989   -0.3819   -1.0030 C.ar    1  UNL1        0.0101
     17 N          -0.5844   -1.3017    0.3592 N.ar    1  UNL1       -0.2142
     18 C          -1.7249   -1.6436    1.0343 C.ar    1  UNL1        0.0909
     19 C          -1.9629   -2.7335    1.8843 C.ar    1  UNL1       -0.0342
     20 C          -3.2259   -2.8665    2.4723 C.ar    1  UNL1       -0.0596
     21 C          -4.2309   -1.9317    2.2196 C.ar    1  UNL1       -0.0597
     22 C          -4.0107   -0.8382    1.3732 C.ar    1  UNL1       -0.0360
     23 C          -2.7406   -0.7263    0.7919 C.ar    1  UNL1        0.0700
     24 H          -2.9526    4.0291   -1.3549 H       1  UNL1        0.0230
     25 H          -4.3664    3.6637   -0.3459 H       1  UNL1        0.0230
     26 H          -3.0757    4.7049    0.2785 H       1  UNL1        0.0230
     27 H          -2.8890    2.4470    1.2704 H       1  UNL1        0.0280
     28 H          -1.4875    2.8119    0.2714 H       1  UNL1        0.0280
     29 H          -2.5155    1.4947   -1.6365 H       1  UNL1        0.0493
     30 H          -3.9116    1.1467   -0.6359 H       1  UNL1        0.0493
     31 H          -0.4541    1.1219   -1.8014 H       1  UNL1        0.1544
     32 H           1.5435    0.5958   -2.3660 H       1  UNL1        0.0789
     33 H           1.4071   -0.4745    1.4561 H       1  UNL1        0.0836
     34 H           6.1806   -1.4759    1.0578 H       1  UNL1        0.0639
     35 H           7.4592   -1.2154   -1.0733 H       1  UNL1        0.0618
     36 H           6.3173   -0.4304   -3.1302 H       1  UNL1        0.0618
     37 H           3.8883    0.1061   -3.0987 H       1  UNL1        0.0624
     38 H          -1.1741   -3.4522    2.0777 H       1  UNL1        0.0639
     39 H          -3.4212   -3.7066    3.1344 H       1  UNL1        0.0618
     40 H          -5.2041   -2.0544    2.6907 H       1  UNL1        0.0618
     41 H          -4.7975   -0.1158    1.1868 H       1  UNL1        0.0639
@<TRIPOS>BOND
     1     1     2    1
     2     2     3    1
     3     3     4    1
     4     4     5   ar
     5     5     6    1
     6     6     7    1
     7     7     8    2
     8     8     9    1
     9     9    10    2
    10    10    11    1
    11    11    12   ar
    12    12    13   ar
    13    13    14   ar
    14    14    15   ar
    15    15    16   ar
    16     5    17   ar
    17    17    18   ar
    18    18    19   ar
    19    19    20   ar
    20    20    21   ar
    21    21    22   ar
    22    22    23   ar
    23    23     4   ar
    24    16     8    1
    25    23    18   ar
    26    16    11   ar
    27     1    24    1
    28     1    25    1
    29     1    26    1
    30     2    27    1
    31     2    28    1
    32     3    29    1
    33     3    30    1
    34     6    31    1
    35     7    32    1
    36     9    33    1
    37    12    34    1
    38    13    35    1
    39    14    36    1
    40    15    37    1
    41    19    38    1
    42    20    39    1
    43    21    40    1
    44    22    41    1
