@<TRIPOS>MOLECULE
*****
 32 33 0 0 0
SMALL
GASTEIGER

@<TRIPOS>ATOM
      1 C           4.7069    0.8522    0.2965 C.3     1  UNL1       -0.0636
      2 C           3.2335    0.5302    0.4826 C.3     1  UNL1       -0.0361
      3 C           2.5788    0.1236   -0.8365 C.3     1  UNL1        0.0450
      4 N           1.1619   -0.1795   -0.6595 N.ar    1  UNL1       -0.2287
      5 N           0.3035    0.8828   -0.7811 N.ar    1  UNL1       -0.1720
      6 C          -0.9675    0.7007   -0.5878 C.ar    1  UNL1        0.0801
      7 C          -1.8603    1.9132   -0.7463 C.3     1  UNL1        0.0892
      8 C          -2.3145    2.4949    0.5572 C.2     1  UNL1        0.3107
      9 O          -2.2149    1.9991    1.6659 O.2     1  UNL1       -0.2506
     10 O          -2.9360    3.6805    0.3946 O.3     1  UNL1       -0.4803
     11 C          -1.5522   -0.6132   -0.2351 C.ar    1  UNL1        0.0108
     12 C          -2.9244   -0.8217   -0.0422 C.ar    1  UNL1       -0.0521
     13 C          -3.4006   -2.0940    0.2888 C.ar    1  UNL1       -0.0611
     14 C          -2.5146   -3.1602    0.4286 C.ar    1  UNL1       -0.0610
     15 C          -1.1491   -2.9554    0.2384 C.ar    1  UNL1       -0.0487
     16 C          -0.6707   -1.6801   -0.0939 C.ar    1  UNL1        0.0498
     17 C           0.7733   -1.4653   -0.2961 C.ar    1  UNL1        0.2750
     18 O           1.5507   -2.4052   -0.1451 O.2     1  UNL1       -0.2656
     19 H           5.2529   -0.0164   -0.0855 H       1  UNL1        0.0230
     20 H           5.1554    1.1420    1.2519 H       1  UNL1        0.0230
     21 H           4.8416    1.6799   -0.4071 H       1  UNL1        0.0230
     22 H           3.1288   -0.2758    1.2184 H       1  UNL1        0.0280
     23 H           2.7209    1.4054    0.8994 H       1  UNL1        0.0280
     24 H           2.6696    0.9270   -1.5774 H       1  UNL1        0.0510
     25 H           3.0824   -0.7588   -1.2483 H       1  UNL1        0.0510
     26 H          -1.2969    2.6856   -1.2843 H       1  UNL1        0.0442
     27 H          -2.7331    1.6562   -1.3541 H       1  UNL1        0.0442
     28 H          -3.1702    3.9589    1.3056 H       1  UNL1        0.2951
     29 H          -3.6471   -0.0169   -0.1312 H       1  UNL1        0.0624
     30 H          -4.4658   -2.2523    0.4437 H       1  UNL1        0.0618
     31 H          -2.8848   -4.1490    0.6892 H       1  UNL1        0.0618
     32 H          -0.4574   -3.7884    0.3506 H       1  UNL1        0.0625
@<TRIPOS>BOND
     1     1     2    1
     2     2     3    1
     3     3     4    1
     4     4     5   ar
     5     5     6   ar
     6     6     7    1
     7     7     8    1
     8     8     9    2
     9     8    10    1
    10     6    11   ar
    11    11    12   ar
    12    12    13   ar
    13    13    14   ar
    14    14    15   ar
    15    15    16   ar
    16    16    17   ar
    17    17    18    2
    18    17     4   ar
    19    16    11   ar
    20     1    19    1
    21     1    20    1
    22     1    21    1
    23     2    22    1
    24     2    23    1
    25     3    24    1
    26     3    25    1
    27     7    26    1
    28     7    27    1
    29    10    28    1
    30    12    29    1
    31    13    30    1
    32    14    31    1
    33    15    32    1
