@<TRIPOS>MOLECULE
*****
 50 51 0 0 0
SMALL
GASTEIGER

@<TRIPOS>ATOM
      1 C          -6.1849   -2.1182    1.8784 C.3     1  UNL1       -0.0639
      2 C          -6.2714   -0.6113    2.0723 C.3     1  UNL1       -0.0402
      3 C          -4.9513    0.1022    1.7909 C.3     1  UNL1        0.0116
      4 N          -4.6210    0.1209    0.3772 N.am    1  UNL1       -0.3113
      5 C          -3.6260    0.9585   -0.0950 C.2     1  UNL1        0.2459
      6 O          -3.0313    1.7598    0.6214 O.2     1  UNL1       -0.2701
      7 C          -3.2471    0.8131   -1.5365 C.ar    1  UNL1        0.0578
      8 C          -4.1963    0.3293   -2.4558 C.ar    1  UNL1       -0.0478
      9 C          -3.8609    0.1732   -3.7993 C.ar    1  UNL1       -0.0609
     10 C          -2.5819    0.5044   -4.2340 C.ar    1  UNL1       -0.0600
     11 C          -1.6376    1.0096   -3.3346 C.ar    1  UNL1       -0.0397
     12 C          -1.9533    1.1838   -1.9819 C.ar    1  UNL1        0.0456
     13 N          -1.0267    1.7204   -1.0526 N.am    1  UNL1       -0.2842
     14 C           0.2631    2.1623   -1.2688 C.2     1  UNL1        0.2271
     15 O           0.8753    2.1329   -2.3352 O.2     1  UNL1       -0.2746
     16 C           0.9239    2.7033   -0.0088 C.3     1  UNL1        0.0708
     17 S           1.8907    1.4095    0.8314 S.3     1  UNL1       -0.1468
     18 C           3.1595    1.1192   -0.4449 C.3     1  UNL1        0.0193
     19 C           4.3136    0.3175    0.1040 C.ar    1  UNL1       -0.0373
     20 C           5.3408    0.9442    0.8210 C.ar    1  UNL1       -0.0543
     21 C           6.4028    0.1948    1.3351 C.ar    1  UNL1       -0.0197
     22 C           6.4606   -1.1878    1.1428 C.ar    1  UNL1        0.1201
     23 O           7.5524   -1.7985    1.6976 O.3     1  UNL1       -0.4951
     24 C           7.6964   -3.1941    1.4614 C.3     1  UNL1        0.0788
     25 C           5.4378   -1.8191    0.4352 C.ar    1  UNL1       -0.0197
     26 C           4.3699   -1.0716   -0.0767 C.ar    1  UNL1       -0.0543
     27 H          -5.4050   -2.5511    2.5121 H       1  UNL1        0.0230
     28 H          -5.9681   -2.3786    0.8384 H       1  UNL1        0.0230
     29 H          -7.1355   -2.5872    2.1493 H       1  UNL1        0.0230
     30 H          -7.0633   -0.2062    1.4290 H       1  UNL1        0.0278
     31 H          -6.5644   -0.4152    3.1113 H       1  UNL1        0.0278
     32 H          -5.0167    1.1393    2.1388 H       1  UNL1        0.0462
     33 H          -4.1220   -0.3740    2.3271 H       1  UNL1        0.0462
     34 H          -4.8164   -0.7159   -0.1555 H       1  UNL1        0.1490
     35 H          -5.2120    0.0957   -2.1464 H       1  UNL1        0.0626
     36 H          -4.5969   -0.1978   -4.5083 H       1  UNL1        0.0618
     37 H          -2.3137    0.3852   -5.2814 H       1  UNL1        0.0618
     38 H          -0.6588    1.2656   -3.7305 H       1  UNL1        0.0636
     39 H          -1.4024    1.8389   -0.1067 H       1  UNL1        0.1548
     40 H           1.5651    3.5533   -0.2723 H       1  UNL1        0.0471
     41 H           0.1652    3.0787    0.6857 H       1  UNL1        0.0471
     42 H           2.7116    0.5838   -1.2893 H       1  UNL1        0.0425
     43 H           3.5332    2.0769   -0.8216 H       1  UNL1        0.0425
     44 H           5.3176    2.0181    0.9921 H       1  UNL1        0.0622
     45 H           7.1926    0.6933    1.8927 H       1  UNL1        0.0654
     46 H           8.6344   -3.5168    1.9251 H       1  UNL1        0.0660
     47 H           6.8828   -3.7595    1.9283 H       1  UNL1        0.0660
     48 H           7.7656   -3.4093    0.3891 H       1  UNL1        0.0660
     49 H           5.4336   -2.8912    0.2707 H       1  UNL1        0.0654
     50 H           3.5766   -1.5842   -0.6173 H       1  UNL1        0.0622
@<TRIPOS>BOND
     1     1     2    1
     2     2     3    1
     3     3     4    1
     4     4     5   am
     5     5     6    2
     6     5     7    1
     7     7     8   ar
     8     8     9   ar
     9     9    10   ar
    10    10    11   ar
    11    11    12   ar
    12    12    13    1
    13    13    14   am
    14    14    15    2
    15    14    16    1
    16    16    17    1
    17    17    18    1
    18    18    19    1
    19    19    20   ar
    20    20    21   ar
    21    21    22   ar
    22    22    23    1
    23    23    24    1
    24    22    25   ar
    25    25    26   ar
    26    12     7   ar
    27    26    19   ar
    28     1    27    1
    29     1    28    1
    30     1    29    1
    31     2    30    1
    32     2    31    1
    33     3    32    1
    34     3    33    1
    35     4    34    1
    36     8    35    1
    37     9    36    1
    38    10    37    1
    39    11    38    1
    40    13    39    1
    41    16    40    1
    42    16    41    1
    43    18    42    1
    44    18    43    1
    45    20    44    1
    46    21    45    1
    47    24    46    1
    48    24    47    1
    49    24    48    1
    50    25    49    1
    51    26    50    1
