@<TRIPOS>MOLECULE
*****
 36 37 0 0 0
SMALL
GASTEIGER

@<TRIPOS>ATOM
      1 C           6.6205   -0.9288    0.2861 C.3     1  UNL1       -0.0639
      2 C           5.1556   -1.0654   -0.0944 C.3     1  UNL1       -0.0402
      3 C           4.6912    0.1062   -0.9563 C.3     1  UNL1        0.0128
      4 N           3.3037   -0.0315   -1.3544 N.am    1  UNL1       -0.2992
      5 C           2.2820    0.2959   -0.4819 C.2     1  UNL1        0.3039
      6 O           2.4904    0.7589    0.6310 O.2     1  UNL1       -0.2525
      7 N           1.0562    0.0410   -1.0573 N.am    1  UNL1       -0.2694
      8 C          -0.2190    0.1642   -0.4667 C.ar    1  UNL1        0.0369
      9 C          -0.4210    0.4315    0.8903 C.ar    1  UNL1       -0.0384
     10 C          -1.7082    0.5372    1.4401 C.ar    1  UNL1       -0.0343
     11 C          -2.7910    0.3579    0.5741 C.ar    1  UNL1        0.0687
     12 C          -2.6222    0.0882   -0.7789 C.ar    1  UNL1        0.0910
     13 C          -1.3269   -0.0139   -1.3101 C.ar    1  UNL1       -0.0129
     14 N          -3.8326   -0.0400   -1.4117 N.ar    1  UNL1       -0.2325
     15 C          -4.7455    0.1508   -0.4808 C.ar    1  UNL1        0.1074
     16 C          -6.2144    0.1237   -0.6962 C.3     1  UNL1       -0.0063
     17 N          -4.1550    0.3858    0.7421 N.ar    1  UNL1       -0.3308
     18 C          -4.8550    0.6301    1.9800 C.3     1  UNL1        0.0135
     19 H           7.2564   -0.9005   -0.6046 H       1  UNL1        0.0230
     20 H           6.9337   -1.7791    0.8998 H       1  UNL1        0.0230
     21 H           6.7923   -0.0131    0.8608 H       1  UNL1        0.0230
     22 H           4.5501   -1.1299    0.8172 H       1  UNL1        0.0278
     23 H           5.0074   -2.0065   -0.6374 H       1  UNL1        0.0278
     24 H           4.8147    1.0521   -0.4170 H       1  UNL1        0.0462
     25 H           5.2809    0.1592   -1.8777 H       1  UNL1        0.0462
     26 H           3.0976   -0.7537   -2.0276 H       1  UNL1        0.1502
     27 H           1.0729   -0.1219   -2.0525 H       1  UNL1        0.1564
     28 H           0.4199    0.5623    1.5667 H       1  UNL1        0.0637
     29 H          -1.8384    0.7488    2.4958 H       1  UNL1        0.0639
     30 H          -1.2182   -0.2248   -2.3673 H       1  UNL1        0.0658
     31 H          -6.6662   -0.7209   -0.1670 H       1  UNL1        0.0307
     32 H          -6.6775    1.0507   -0.3440 H       1  UNL1        0.0307
     33 H          -6.4427    0.0163   -1.7614 H       1  UNL1        0.0307
     34 H          -5.2317    1.6560    1.9615 H       1  UNL1        0.0456
     35 H          -5.6812   -0.0802    2.0689 H       1  UNL1        0.0456
     36 H          -4.1790    0.4937    2.8268 H       1  UNL1        0.0456
@<TRIPOS>BOND
     1     1     2    1
     2     2     3    1
     3     3     4    1
     4     4     5   am
     5     5     6    2
     6     5     7   am
     7     7     8    1
     8     8     9   ar
     9     9    10   ar
    10    10    11   ar
    11    11    12   ar
    12    12    13   ar
    13    12    14   ar
    14    14    15   ar
    15    15    16    1
    16    15    17   ar
    17    17    18    1
    18    13     8   ar
    19    17    11   ar
    20     1    19    1
    21     1    20    1
    22     1    21    1
    23     2    22    1
    24     2    23    1
    25     3    24    1
    26     3    25    1
    27     4    26    1
    28     7    27    1
    29     9    28    1
    30    10    29    1
    31    13    30    1
    32    16    31    1
    33    16    32    1
    34    16    33    1
    35    18    34    1
    36    18    35    1
    37    18    36    1
