@<TRIPOS>MOLECULE
*****
 41 48 0 0 0
SMALL
GASTEIGER

@<TRIPOS>ATOM
      1 SI          5.8679    1.3796   -0.0103 Si      1  UNL1        0.0000
      2 C           7.3644    0.4157    0.5979 C.2     1  UNL1        0.0000
      3 C           7.0112   -0.8131    1.0138 C.2     1  UNL1        0.0000
      4 C           5.5928   -1.1234    0.9026 C.2     1  UNL1        0.0000
      5 C           4.8121   -0.1385    0.4056 C.2     1  UNL1        0.0000
      6 C           3.4097   -0.2586    0.1963 C.ar    1  UNL1        0.0000
      7 C           2.6629   -1.4097    0.0062 C.ar    1  UNL1        0.0000
      8 C           1.2927   -1.1173   -0.1491 C.ar    1  UNL1        0.0000
      9 C           0.2955   -2.1007   -0.4065 C.ar    1  UNL1        0.0000
     10 N           0.6183   -3.3778   -0.5584 N.ar    1  UNL1        0.0000
     11 S          -0.8428   -4.0834   -0.9362 S.2     1  UNL1        0.0000
     12 N          -1.8300   -2.7451   -0.8780 N.ar    1  UNL1        0.0000
     13 C          -1.0888   -1.6736   -0.5240 C.ar    1  UNL1        0.0000
     14 C          -1.5524   -0.3142   -0.3572 C.ar    1  UNL1        0.0000
     15 C          -0.4508    0.6189   -0.2455 C.ar    1  UNL1        0.0000
     16 C          -0.8055    2.0043   -0.3253 C.ar    1  UNL1        0.0000
     17 N           0.0374    3.0526   -0.2768 N.ar    1  UNL1        0.0000
     18 S          -0.8399    4.4318   -0.4694 S.2     1  UNL1        0.0000
     19 N          -2.3500    3.7910   -0.6241 N.ar    1  UNL1        0.0000
     20 C          -2.2351    2.4523   -0.5174 C.ar    1  UNL1        0.0000
     21 C          -3.3237    1.5254   -0.5576 C.ar    1  UNL1        0.0000
     22 C          -4.6592    2.0613   -0.7420 C.ar    1  UNL1        0.0000
     23 C          -5.8281    1.2929   -0.7212 C.ar    1  UNL1        0.0000
     24 C          -5.5414   -0.0280   -0.4161 C.ar    1  UNL1        0.0000
     25 C          -6.5604   -0.9300   -0.2253 C.ar    1  UNL1        0.0000
     26 S          -5.9557   -2.4420    0.2950 S.2     1  UNL1        0.0000
     27 C          -4.3350   -1.8701    0.2677 C.ar    1  UNL1        0.0000
     28 C          -4.2149   -0.5934   -0.2356 C.ar    1  UNL1        0.0000
     29 C          -2.9711    0.1304   -0.3829 C.ar    1  UNL1        0.0000
     30 C           0.9125    0.2051   -0.0963 C.ar    1  UNL1        0.0000
     31 S           2.3668    1.1172    0.1644 S.2     1  UNL1        0.0000
     32 H           5.5940    2.5510    0.8600 H       1  UNL1        0.0000
     33 H           5.9529    1.6517   -1.4677 H       1  UNL1        0.0000
     34 H           8.3543    0.8435    0.5937 H       1  UNL1        0.0000
     35 H           7.7106   -1.5412    1.4066 H       1  UNL1        0.0000
     36 H           5.2347   -2.0969    1.2159 H       1  UNL1        0.0000
     37 H           3.0948   -2.4035   -0.0289 H       1  UNL1        0.0000
     38 H          -4.7779    3.1361   -0.8992 H       1  UNL1        0.0000
     39 H          -6.8147    1.7167   -0.8523 H       1  UNL1        0.0000
     40 H          -7.6271   -0.7799   -0.3222 H       1  UNL1        0.0000
     41 H          -3.5810   -2.5369    0.6515 H       1  UNL1        0.0000
@<TRIPOS>BOND
     1     1     2    1
     2     2     3    2
     3     3     4    1
     4     4     5    2
     5     5     6    1
     6     6     7   ar
     7     7     8   ar
     8     8     9   ar
     9     9    10   ar
    10    10    11   ar
    11    11    12   ar
    12    12    13   ar
    13    13    14   ar
    14    14    15   ar
    15    15    16   ar
    16    16    17   ar
    17    17    18   ar
    18    18    19   ar
    19    19    20   ar
    20    20    21   ar
    21    21    22   ar
    22    22    23   ar
    23    23    24   ar
    24    24    25   ar
    25    25    26   ar
    26    26    27   ar
    27    27    28   ar
    28    28    29   ar
    29    15    30   ar
    30    30    31   ar
    31     5     1    1
    32    31     6   ar
    33    30     8   ar
    34    13     9   ar
    35    29    14   ar
    36    20    16   ar
    37    29    21   ar
    38    28    24   ar
    39     1    32    1
    40     1    33    1
    41     2    34    1
    42     3    35    1
    43     4    36    1
    44     7    37    1
    45    22    38    1
    46    23    39    1
    47    25    40    1
    48    27    41    1
