@<TRIPOS>MOLECULE
*****
 40 41 0 0 0
SMALL
GASTEIGER

@<TRIPOS>ATOM
      1 C           6.3961    0.5501    0.5477 C.3     1  UNL1       -0.0639
      2 C           5.9383   -0.3031   -0.6266 C.3     1  UNL1       -0.0402
      3 C           4.5729   -0.9401   -0.3902 C.3     1  UNL1        0.0128
      4 N           3.5137    0.0472   -0.3315 N.am    1  UNL1       -0.2994
      5 C           2.2649   -0.3288    0.1010 C.2     1  UNL1        0.2996
      6 O           1.9819   -1.4381    0.5280 O.2     1  UNL1       -0.2529
      7 N           1.3799    0.7156   -0.0154 N.am    1  UNL1       -0.2991
      8 C           0.0190    0.5745    0.4769 C.3     1  UNL1        0.0171
      9 C          -0.8562   -0.2979   -0.4277 C.3     1  UNL1       -0.0098
     10 C          -2.2685   -0.3763    0.0679 C.ar    1  UNL1       -0.0179
     11 C          -2.7888   -1.3349    0.9237 C.ar    1  UNL1        0.0171
     12 C          -2.1438   -2.5104    1.5653 C.3     1  UNL1       -0.0242
     13 N          -4.1137   -1.0402    1.1244 N.ar    1  UNL1       -0.3579
     14 C          -4.4688    0.0916    0.4302 C.ar    1  UNL1        0.0469
     15 C          -5.7014    0.7511    0.3508 C.ar    1  UNL1       -0.0378
     16 C          -5.7732    1.8971   -0.4464 C.ar    1  UNL1       -0.0598
     17 C          -4.6560    2.3616   -1.1357 C.ar    1  UNL1       -0.0611
     18 C          -3.4316    1.6891   -1.0446 C.ar    1  UNL1       -0.0523
     19 C          -3.3321    0.5305   -0.2464 C.ar    1  UNL1        0.0031
     20 H           5.7201    1.3944    0.7148 H       1  UNL1        0.0230
     21 H           6.4421   -0.0416    1.4675 H       1  UNL1        0.0230
     22 H           7.3952    0.9530    0.3537 H       1  UNL1        0.0230
     23 H           6.6758   -1.0966   -0.7936 H       1  UNL1        0.0278
     24 H           5.9148    0.3135   -1.5329 H       1  UNL1        0.0278
     25 H           4.5718   -1.5244    0.5372 H       1  UNL1        0.0462
     26 H           4.3336   -1.6245   -1.2122 H       1  UNL1        0.0462
     27 H           3.4813    0.7133   -1.0898 H       1  UNL1        0.1502
     28 H           1.8118    1.6158    0.1349 H       1  UNL1        0.1502
     29 H           0.0580    0.1666    1.4941 H       1  UNL1        0.0466
     30 H          -0.3969    1.5865    0.5428 H       1  UNL1        0.0466
     31 H          -0.8463    0.1056   -1.4482 H       1  UNL1        0.0329
     32 H          -0.4390   -1.3089   -0.5057 H       1  UNL1        0.0329
     33 H          -1.2080   -2.2166    2.0515 H       1  UNL1        0.0292
     34 H          -1.9180   -3.2743    0.8147 H       1  UNL1        0.0292
     35 H          -2.7906   -2.9598    2.3257 H       1  UNL1        0.0292
     36 H          -4.7467   -1.5744    1.7028 H       1  UNL1        0.1656
     37 H          -6.5735    0.3902    0.8857 H       1  UNL1        0.0638
     38 H          -6.7165    2.4317   -0.5298 H       1  UNL1        0.0618
     39 H          -4.7335    3.2535   -1.7522 H       1  UNL1        0.0618
     40 H          -2.5680    2.0587   -1.5887 H       1  UNL1        0.0624
@<TRIPOS>BOND
     1     1     2    1
     2     2     3    1
     3     3     4    1
     4     4     5   am
     5     5     6    2
     6     5     7   am
     7     7     8    1
     8     8     9    1
     9     9    10    1
    10    10    11   ar
    11    11    12    1
    12    11    13   ar
    13    13    14   ar
    14    14    15   ar
    15    15    16   ar
    16    16    17   ar
    17    17    18   ar
    18    18    19   ar
    19    19    10   ar
    20    19    14   ar
    21     1    20    1
    22     1    21    1
    23     1    22    1
    24     2    23    1
    25     2    24    1
    26     3    25    1
    27     3    26    1
    28     4    27    1
    29     7    28    1
    30     8    29    1
    31     8    30    1
    32     9    31    1
    33     9    32    1
    34    12    33    1
    35    12    34    1
    36    12    35    1
    37    13    36    1
    38    15    37    1
    39    16    38    1
    40    17    39    1
    41    18    40    1
