@<TRIPOS>MOLECULE
*****
 27 28 0 0 0
SMALL
GASTEIGER

@<TRIPOS>ATOM
      1 C           4.5334    0.2330    0.3167 C.3     1  UNL1       -0.0639
      2 C           3.2766   -0.3668    0.9258 C.3     1  UNL1       -0.0403
      3 C           2.0125    0.2313    0.3081 C.3     1  UNL1        0.0089
      4 N           0.8387   -0.3723    0.9359 N.pl3   1  UNL1       -0.3421
      5 C          -0.4014   -0.0023    0.3946 C.ar    1  UNL1        0.0572
      6 C          -0.8067    1.3455    0.2281 C.ar    1  UNL1       -0.0322
      7 C          -2.0699    1.7355   -0.2890 C.ar    1  UNL1        0.0197
      8 C          -3.0328    0.7822   -0.6631 C.ar    1  UNL1        0.3022
      9 N          -4.3110    1.1650   -1.1861 N.pl3   1  UNL1        0.0820
     10 O          -5.3223    0.7208   -0.6289 O.co2   1  UNL1       -0.5760
     11 O          -4.3049    1.9723   -2.1264 O.2     1  UNL1        0.0415
     12 C          -2.7026   -0.5744   -0.5272 C.ar    1  UNL1        0.1909
     13 N          -3.3682   -1.7070   -0.8203 N.ar    1  UNL1       -0.1478
     14 N          -2.5093   -2.6595   -0.4417 N.ar    1  UNL1       -0.1953
     15 N          -1.3141   -2.3013    0.0373 N.ar    1  UNL1       -0.1527
     16 C          -1.3874   -0.9568    0.0087 C.ar    1  UNL1        0.1399
     17 H           4.5707    1.3148    0.4799 H       1  UNL1        0.0230
     18 H           5.4243   -0.2101    0.7727 H       1  UNL1        0.0230
     19 H           4.5747    0.0460   -0.7611 H       1  UNL1        0.0230
     20 H           3.2869   -1.4536    0.7787 H       1  UNL1        0.0278
     21 H           3.2799   -0.1942    2.0088 H       1  UNL1        0.0278
     22 H           2.0184    1.3160    0.4643 H       1  UNL1        0.0461
     23 H           2.0037    0.0393   -0.7721 H       1  UNL1        0.0461
     24 H           0.8861   -1.3969    0.9317 H       1  UNL1        0.1461
     25 H          -0.1225    2.1381    0.5328 H       1  UNL1        0.0639
     26 H          -2.2933    2.7982   -0.3831 H       1  UNL1        0.0687
     27 H          -2.7598   -3.6426   -0.5251 H       1  UNL1        0.2125
@<TRIPOS>UNITY_ATOM_ATTR
9 1
charge 1
10 1
charge -1
@<TRIPOS>BOND
     1     1     2    1
     2     2     3    1
     3     3     4    1
     4     4     5    1
     5     5     6   ar
     6     6     7   ar
     7     7     8   ar
     8     8     9    1
     9     9    10    1
    10     9    11    2
    11     8    12   ar
    12    12    13   ar
    13    13    14   ar
    14    14    15   ar
    15    15    16   ar
    16    16     5   ar
    17    16    12   ar
    18     1    17    1
    19     1    18    1
    20     1    19    1
    21     2    20    1
    22     2    21    1
    23     3    22    1
    24     3    23    1
    25     4    24    1
    26     6    25    1
    27     7    26    1
    28    14    27    1
