@<TRIPOS>MOLECULE
*****
 26 27 0 0 0
SMALL
GASTEIGER

@<TRIPOS>ATOM
      1 C          -4.4278   -0.3217    0.1144 C.3     1  UNL1       -0.0639
      2 C          -3.2719    0.6333   -0.1350 C.3     1  UNL1       -0.0403
      3 C          -1.9251   -0.0879   -0.0778 C.3     1  UNL1        0.0089
      4 N          -0.8531    0.8738   -0.3341 N.pl3   1  UNL1       -0.3421
      5 C           0.4576    0.3819   -0.1991 C.ar    1  UNL1        0.0561
      6 C           0.9072   -0.7756   -0.8823 C.ar    1  UNL1       -0.0322
      7 C           2.2242   -1.2833   -0.7978 C.ar    1  UNL1        0.0197
      8 C           3.2021   -0.6429   -0.0213 C.ar    1  UNL1        0.3011
      9 N           4.5376   -1.1588    0.0608 N.pl3   1  UNL1        0.0819
     10 O           5.4611   -0.4252   -0.3121 O.co2   1  UNL1       -0.5760
     11 O           4.6555   -2.3314    0.4420 O.2     1  UNL1        0.0415
     12 C           2.8619    0.5192    0.7008 C.ar    1  UNL1        0.1783
     13 N           3.6292    1.2570    1.5210 N.ar    1  UNL1       -0.1838
     14 S           2.6872    2.5073    2.0701 S.2     1  UNL1        0.1167
     15 N           1.2444    2.1564    1.3295 N.ar    1  UNL1       -0.1887
     16 C           1.4494    1.0458    0.5986 C.ar    1  UNL1        0.1273
     17 H          -4.4504   -1.1157   -0.6389 H       1  UNL1        0.0230
     18 H          -5.3801    0.2159    0.0698 H       1  UNL1        0.0230
     19 H          -4.3462   -0.7867    1.1020 H       1  UNL1        0.0230
     20 H          -3.2988    1.4360    0.6119 H       1  UNL1        0.0278
     21 H          -3.3988    1.1089   -1.1151 H       1  UNL1        0.0278
     22 H          -1.9161   -0.8854   -0.8293 H       1  UNL1        0.0461
     23 H          -1.7934   -0.5448    0.9109 H       1  UNL1        0.0461
     24 H          -0.9427    1.7077    0.2557 H       1  UNL1        0.1461
     25 H           0.2086   -1.3014   -1.5344 H       1  UNL1        0.0639
     26 H           2.4786   -2.1824   -1.3594 H       1  UNL1        0.0687
@<TRIPOS>UNITY_ATOM_ATTR
9 1
charge 1
10 1
charge -1
@<TRIPOS>BOND
     1     1     2    1
     2     2     3    1
     3     3     4    1
     4     4     5    1
     5     5     6   ar
     6     6     7   ar
     7     7     8   ar
     8     8     9    1
     9     9    10    1
    10     9    11    2
    11     8    12   ar
    12    12    13   ar
    13    13    14   ar
    14    14    15   ar
    15    15    16   ar
    16    16     5   ar
    17    16    12   ar
    18     1    17    1
    19     1    18    1
    20     1    19    1
    21     2    20    1
    22     2    21    1
    23     3    22    1
    24     3    23    1
    25     4    24    1
    26     6    25    1
    27     7    26    1
