@<TRIPOS>MOLECULE
*****
 31 31 0 0 0
SMALL
GASTEIGER

@<TRIPOS>ATOM
      1 C          -5.9086    0.4747   -0.5287 C.3     1  UNL1       -0.0622
      2 C          -4.4094    0.3682   -0.7416 C.3     1  UNL1       -0.0214
      3 C          -3.7210   -0.3426    0.4170 C.3     1  UNL1        0.0926
      4 O          -2.3183   -0.3986    0.1334 O.3     1  UNL1       -0.4603
      5 C          -1.5885   -0.9795    1.1056 C.2     1  UNL1        0.3548
      6 O          -1.9750   -1.5081    2.1310 O.2     1  UNL1       -0.2436
      7 C          -0.1278   -0.9628    0.7062 C.2     1  UNL1        0.1398
      8 C           0.4185   -2.2672    0.2044 C.3     1  UNL1       -0.0139
      9 N           0.5245    0.1556    0.8286 N.2     1  UNL1       -0.1776
     10 N           1.8441    0.1765    0.4809 N.am    1  UNL1       -0.2000
     11 C           2.5901    1.3452    0.5766 C.2     1  UNL1        0.2985
     12 O           2.1434    2.4256    0.9537 O.2     1  UNL1       -0.2651
     13 C           3.9722    1.1599    0.1782 C.ar    1  UNL1        0.1907
     14 C           5.0309    2.0470    0.1267 C.ar    1  UNL1       -0.0112
     15 C           6.1519    1.3194   -0.3383 C.ar    1  UNL1       -0.0231
     16 C           5.7147    0.0326   -0.5438 C.ar    1  UNL1        0.0928
     17 O           4.3965   -0.0794   -0.2356 O.2     1  UNL1       -0.4583
     18 H          -6.3635   -0.5170   -0.4399 H       1  UNL1        0.0231
     19 H          -6.1365    1.0401    0.3805 H       1  UNL1        0.0231
     20 H          -6.3764    0.9884   -1.3743 H       1  UNL1        0.0231
     21 H          -3.9790    1.3691   -0.8665 H       1  UNL1        0.0295
     22 H          -4.2030   -0.1672   -1.6761 H       1  UNL1        0.0295
     23 H          -3.8854    0.2099    1.3498 H       1  UNL1        0.0697
     24 H          -4.1132   -1.3612    0.5209 H       1  UNL1        0.0697
     25 H           0.8155   -2.1363   -0.8060 H       1  UNL1        0.0295
     26 H           1.2147   -2.6113    0.8699 H       1  UNL1        0.0295
     27 H          -0.3651   -3.0292    0.1731 H       1  UNL1        0.0295
     28 H           2.3210   -0.6604    0.1624 H       1  UNL1        0.1777
     29 H           4.9829    3.0938    0.3971 H       1  UNL1        0.0657
     30 H           7.1550    1.6878   -0.5029 H       1  UNL1        0.0649
     31 H           6.1945   -0.8732   -0.8888 H       1  UNL1        0.1029
@<TRIPOS>BOND
     1     1     2    1
     2     2     3    1
     3     3     4    1
     4     4     5    1
     5     5     6    2
     6     5     7    1
     7     7     8    1
     8     7     9    2
     9     9    10    1
    10    10    11   am
    11    11    12    2
    12    11    13    1
    13    13    14   ar
    14    14    15   ar
    15    15    16   ar
    16    16    17   ar
    17    17    13   ar
    18     1    18    1
    19     1    19    1
    20     1    20    1
    21     2    21    1
    22     2    22    1
    23     3    23    1
    24     3    24    1
    25     8    25    1
    26     8    26    1
    27     8    27    1
    28    10    28    1
    29    14    29    1
    30    15    30    1
    31    16    31    1
