@<TRIPOS>MOLECULE
*****
 46 46 0 0 0
SMALL
GASTEIGER

@<TRIPOS>ATOM
      1 C          -0.8510    2.6189   -2.2716 C.3     1  UNL1       -0.0622
      2 C          -1.5978    2.7788   -0.9554 C.3     1  UNL1       -0.0213
      3 C          -2.8085    1.8544   -0.8550 C.3     1  UNL1        0.0938
      4 O          -2.4347    0.4784   -1.0226 O.3     1  UNL1       -0.4504
      5 C          -1.9588   -0.1416    0.0822 C.2     1  UNL1        0.4017
      6 O          -1.8120    0.3691    1.1802 O.2     1  UNL1       -0.2264
      7 N          -1.6528   -1.4228   -0.2324 N.am    1  UNL1       -0.2593
      8 C          -0.9575   -2.3016    0.6758 C.3     1  UNL1        0.1313
      9 C           0.6016   -2.2662    0.5275 C.3     1  UNL1        0.1313
     10 N           1.1698   -1.0062    0.1566 N.am    1  UNL1       -0.2593
     11 C           1.3761   -0.0516    1.1014 C.2     1  UNL1        0.4017
     12 O           1.3133   -0.2406    2.3062 O.2     1  UNL1       -0.2264
     13 O           1.6572    1.1250    0.4945 O.3     1  UNL1       -0.4504
     14 C           1.8680    2.2124    1.4047 C.3     1  UNL1        0.0938
     15 C           2.2560    3.4414    0.5917 C.3     1  UNL1       -0.0213
     16 C           2.4943    4.6523    1.4752 C.3     1  UNL1       -0.0622
     17 N           0.8490   -3.2856   -0.4709 N.am    1  UNL1       -0.2665
     18 C           2.1910   -3.7180   -0.7839 C.3     1  UNL1        0.0065
     19 C          -0.1961   -4.2249   -0.4213 C.2     1  UNL1        0.3073
     20 O          -0.1792   -5.3413   -0.9122 O.2     1  UNL1       -0.2523
     21 N          -1.2459   -3.6630    0.2980 N.am    1  UNL1       -0.2665
     22 C          -2.5214   -4.2916    0.5376 C.3     1  UNL1        0.0065
     23 H          -1.5125    2.8074   -3.1229 H       1  UNL1        0.0231
     24 H          -0.0204    3.3295   -2.3236 H       1  UNL1        0.0231
     25 H          -0.4357    1.6113   -2.3734 H       1  UNL1        0.0231
     26 H          -1.9277    3.8179   -0.8477 H       1  UNL1        0.0295
     27 H          -0.9020    2.5709   -0.1360 H       1  UNL1        0.0295
     28 H          -3.3377    1.9994    0.0949 H       1  UNL1        0.0698
     29 H          -3.5226    2.0885   -1.6522 H       1  UNL1        0.0698
     30 H          -1.7368   -1.6948   -1.1993 H       1  UNL1        0.1539
     31 H          -1.2596   -2.1043    1.7102 H       1  UNL1        0.0747
     32 H           1.0512   -2.6205    1.4658 H       1  UNL1        0.0747
     33 H           1.0812   -0.6861   -0.7948 H       1  UNL1        0.1539
     34 H           0.9428    2.4037    1.9613 H       1  UNL1        0.0698
     35 H           2.6724    1.9583    2.1053 H       1  UNL1        0.0698
     36 H           3.1578    3.2239    0.0066 H       1  UNL1        0.0295
     37 H           1.4703    3.6642   -0.1393 H       1  UNL1        0.0295
     38 H           3.3023    4.4644    2.1895 H       1  UNL1        0.0231
     39 H           1.5917    4.9120    2.0377 H       1  UNL1        0.0231
     40 H           2.7742    5.5172    0.8660 H       1  UNL1        0.0231
     41 H           2.7962   -2.8573   -1.0795 H       1  UNL1        0.0430
     42 H           2.1666   -4.4421   -1.6038 H       1  UNL1        0.0430
     43 H           2.6257   -4.1998    0.0970 H       1  UNL1        0.0430
     44 H          -2.7438   -4.2446    1.6067 H       1  UNL1        0.0430
     45 H          -2.5008   -5.3359    0.2155 H       1  UNL1        0.0430
     46 H          -3.2935   -3.7589   -0.0233 H       1  UNL1        0.0430
@<TRIPOS>BOND
     1     1     2    1
     2     2     3    1
     3     3     4    1
     4     4     5    1
     5     5     6    2
     6     5     7   am
     7     7     8    1
     8     8     9    1
     9     9    10    1
    10    10    11   am
    11    11    12    2
    12    11    13    1
    13    13    14    1
    14    14    15    1
    15    15    16    1
    16     9    17    1
    17    17    18    1
    18    17    19   am
    19    19    20    2
    20    19    21   am
    21    21    22    1
    22    21     8    1
    23     1    23    1
    24     1    24    1
    25     1    25    1
    26     2    26    1
    27     2    27    1
    28     3    28    1
    29     3    29    1
    30     7    30    1
    31     8    31    1
    32     9    32    1
    33    10    33    1
    34    14    34    1
    35    14    35    1
    36    15    36    1
    37    15    37    1
    38    16    38    1
    39    16    39    1
    40    16    40    1
    41    18    41    1
    42    18    42    1
    43    18    43    1
    44    22    44    1
    45    22    45    1
    46    22    46    1
