@<TRIPOS>MOLECULE
*****
 40 42 0 0 0
SMALL
GASTEIGER

@<TRIPOS>ATOM
      1 C          -0.4302    3.2341   -1.3313 C.3     1  UNL1       -0.0488
      2 C          -0.0426    2.0749   -2.2398 C.3     1  UNL1        0.0189
      3 N          -0.1190    0.7790   -1.5483 N.am    1  UNL1       -0.2465
      4 C          -1.3797    0.1548   -1.5730 C.2     1  UNL1        0.2589
      5 O          -2.3302    0.7060   -2.1461 O.2     1  UNL1       -0.2715
      6 C          -1.5961   -1.2120   -0.8911 C.3     1  UNL1        0.1657
      7 O          -2.8966   -1.7673   -1.0785 O.3     1  UNL1       -0.4828
      8 C          -3.8758   -1.4274   -0.1869 C.ar    1  UNL1        0.1212
      9 C          -3.8380   -0.3596    0.7104 C.ar    1  UNL1       -0.0199
     10 C          -4.9182   -0.1231    1.5670 C.ar    1  UNL1       -0.0583
     11 C          -6.0416   -0.9472    1.5262 C.ar    1  UNL1       -0.0615
     12 C          -6.0901   -2.0063    0.6236 C.ar    1  UNL1       -0.0583
     13 C          -5.0117   -2.2406   -0.2312 C.ar    1  UNL1       -0.0199
     14 C           0.9500    0.2118   -0.8463 C.ar    1  UNL1        0.1907
     15 N           0.9710   -0.9269   -0.1934 N.ar    1  UNL1       -0.1251
     16 N           2.1838   -1.1947    0.3972 N.ar    1  UNL1       -0.1395
     17 C           3.0767   -0.2489    0.1818 C.ar    1  UNL1        0.1351
     18 C           4.4525   -0.2745    0.6929 C.ar    1  UNL1        0.0271
     19 C           5.4046    0.7266    0.4585 C.ar    1  UNL1       -0.0491
     20 C           6.6914    0.6129    0.9885 C.ar    1  UNL1       -0.0430
     21 C           6.9978   -0.5045    1.7443 C.ar    1  UNL1        0.0276
     22 N           6.1177   -1.4927    1.9972 N.ar    1  UNL1       -0.2626
     23 C           4.8749   -1.3550    1.4687 C.ar    1  UNL1        0.0373
     24 S           2.4547    1.0396   -0.7719 S.2     1  UNL1       -0.0302
     25 H          -1.4529    3.1191   -0.9578 H       1  UNL1        0.0245
     26 H          -0.3725    4.1797   -1.8793 H       1  UNL1        0.0245
     27 H           0.2335    3.3021   -0.4639 H       1  UNL1        0.0245
     28 H           0.9552    2.2291   -2.6624 H       1  UNL1        0.0466
     29 H          -0.7145    2.0665   -3.1068 H       1  UNL1        0.0466
     30 H          -0.9156   -1.9241   -1.3700 H       1  UNL1        0.0795
     31 H          -1.3567   -1.1619    0.1760 H       1  UNL1        0.0795
     32 H          -2.9951    0.3202    0.7575 H       1  UNL1        0.0654
     33 H          -4.8848    0.7123    2.2616 H       1  UNL1        0.0619
     34 H          -6.8804   -0.7591    2.1909 H       1  UNL1        0.0618
     35 H          -6.9656   -2.6481    0.5803 H       1  UNL1        0.0619
     36 H          -5.0545   -3.0656   -0.9378 H       1  UNL1        0.0654
     37 H           5.1737    1.6074   -0.1340 H       1  UNL1        0.0625
     38 H           7.4374    1.3808    0.8142 H       1  UNL1        0.0633
     39 H           7.9850   -0.6381    2.1777 H       1  UNL1        0.0829
     40 H           4.2025   -2.1793    1.7014 H       1  UNL1        0.0836
@<TRIPOS>BOND
     1     1     2    1
     2     2     3    1
     3     3     4   am
     4     4     5    2
     5     4     6    1
     6     6     7    1
     7     7     8    1
     8     8     9   ar
     9     9    10   ar
    10    10    11   ar
    11    11    12   ar
    12    12    13   ar
    13     3    14    1
    14    14    15   ar
    15    15    16   ar
    16    16    17   ar
    17    17    18    1
    18    18    19   ar
    19    19    20   ar
    20    20    21   ar
    21    21    22   ar
    22    22    23   ar
    23    17    24   ar
    24    13     8   ar
    25    24    14   ar
    26    23    18   ar
    27     1    25    1
    28     1    26    1
    29     1    27    1
    30     2    28    1
    31     2    29    1
    32     6    30    1
    33     6    31    1
    34     9    32    1
    35    10    33    1
    36    11    34    1
    37    12    35    1
    38    13    36    1
    39    19    37    1
    40    20    38    1
    41    21    39    1
    42    23    40    1
