@<TRIPOS>MOLECULE
*****
 43 45 0 0 0
SMALL
GASTEIGER

@<TRIPOS>ATOM
      1 C          -2.8682   -1.1174   -2.9186 C.3     1  UNL1       -0.0489
      2 C          -1.7232   -0.5735   -2.0744 C.3     1  UNL1        0.0170
      3 N          -1.9858   -0.6961   -0.6368 N.am    1  UNL1       -0.2710
      4 C          -1.5634   -1.8752   -0.0085 C.2     1  UNL1        0.2301
      5 O          -1.2357   -2.8751   -0.6563 O.2     1  UNL1       -0.2743
      6 C          -1.4599   -1.8517    1.5181 C.3     1  UNL1        0.0782
      7 S           0.0875   -2.6164    2.0920 S.3     1  UNL1       -0.0750
      8 C           1.2532   -1.5380    1.3738 C.ar    1  UNL1        0.2113
      9 N           0.9244   -0.3396    0.8186 N.ar    1  UNL1       -0.1835
     10 C           2.0758    0.1266    0.3911 C.ar    1  UNL1        0.2542
     11 N           2.3396    1.2929   -0.2679 N.ar    1  UNL1       -0.2158
     12 C           3.5826    1.5131   -0.5807 C.ar    1  UNL1        0.0438
     13 C           3.9082    2.7932   -1.3101 C.3     1  UNL1       -0.0222
     14 C           4.7261    0.5934   -0.2741 C.ar    1  UNL1       -0.0194
     15 C           4.4226   -0.5440    0.3763 C.ar    1  UNL1        0.0453
     16 C           5.4458   -1.5681    0.7562 C.3     1  UNL1       -0.0221
     17 N           3.0870   -0.7875    0.7153 N.ar    1  UNL1       -0.2001
     18 N           2.5492   -1.8451    1.3630 N.ar    1  UNL1       -0.1367
     19 C          -2.8603    0.2572   -0.0352 C.ar    1  UNL1        0.0363
     20 C          -3.9239   -0.1573    0.7793 C.ar    1  UNL1       -0.0403
     21 C          -4.7931    0.7767    1.3498 C.ar    1  UNL1       -0.0600
     22 C          -4.6120    2.1360    1.1091 C.ar    1  UNL1       -0.0616
     23 C          -3.5662    2.5609    0.2940 C.ar    1  UNL1       -0.0600
     24 C          -2.6994    1.6264   -0.2799 C.ar    1  UNL1       -0.0403
     25 H          -3.0671   -2.1688   -2.6876 H       1  UNL1        0.0245
     26 H          -2.6230   -1.0418   -3.9825 H       1  UNL1        0.0245
     27 H          -3.7913   -0.5559   -2.7420 H       1  UNL1        0.0245
     28 H          -1.5186    0.4663   -2.3447 H       1  UNL1        0.0466
     29 H          -0.8093   -1.1302   -2.3154 H       1  UNL1        0.0466
     30 H          -1.4990   -0.8384    1.9243 H       1  UNL1        0.0475
     31 H          -2.2971   -2.4254    1.9264 H       1  UNL1        0.0475
     32 H           4.9770    2.8752   -1.5231 H       1  UNL1        0.0293
     33 H           3.6039    3.6453   -0.6953 H       1  UNL1        0.0293
     34 H           3.3565    2.8199   -2.2544 H       1  UNL1        0.0293
     35 H           5.7283    0.8661   -0.5771 H       1  UNL1        0.0653
     36 H           5.2217   -2.5312    0.2853 H       1  UNL1        0.0293
     37 H           5.4686   -1.7069    1.8423 H       1  UNL1        0.0293
     38 H           6.4519   -1.2721    0.4399 H       1  UNL1        0.0293
     39 H          -4.1235   -1.2124    0.9451 H       1  UNL1        0.0636
     40 H          -5.6182    0.4407    1.9727 H       1  UNL1        0.0618
     41 H          -5.2862    2.8634    1.5538 H       1  UNL1        0.0618
     42 H          -3.4163    3.6216    0.1095 H       1  UNL1        0.0618
     43 H          -1.8693    1.9929   -0.8778 H       1  UNL1        0.0636
@<TRIPOS>BOND
     1     1     2    1
     2     2     3    1
     3     3     4   am
     4     4     5    2
     5     4     6    1
     6     6     7    1
     7     7     8    1
     8     8     9   ar
     9     9    10   ar
    10    10    11   ar
    11    11    12   ar
    12    12    13    1
    13    12    14   ar
    14    14    15   ar
    15    15    16    1
    16    15    17   ar
    17    17    18   ar
    18     3    19    1
    19    19    20   ar
    20    20    21   ar
    21    21    22   ar
    22    22    23   ar
    23    23    24   ar
    24    18     8   ar
    25    24    19   ar
    26    17    10   ar
    27     1    25    1
    28     1    26    1
    29     1    27    1
    30     2    28    1
    31     2    29    1
    32     6    30    1
    33     6    31    1
    34    13    32    1
    35    13    33    1
    36    13    34    1
    37    14    35    1
    38    16    36    1
    39    16    37    1
    40    16    38    1
    41    20    39    1
    42    21    40    1
    43    22    41    1
    44    23    42    1
    45    24    43    1
