@<TRIPOS>MOLECULE
*****
 47 49 0 0 0
SMALL
GASTEIGER

@<TRIPOS>ATOM
      1 C           4.6274    0.5886    1.1709 C.3     1  UNL1       -0.0523
      2 C           3.5690    0.7894    0.0873 C.3     1  UNL1       -0.0030
      3 N           3.2429   -0.3789   -0.7540 N.3     1  UNL1       -0.2896
      4 C           2.6996   -1.5092    0.0201 C.3     1  UNL1        0.0609
      5 C           1.4073   -1.1813    0.6431 C.1     1  UNL1       -0.0866
      6 C           0.3468   -0.9053    1.1368 C.1     1  UNL1       -0.0974
      7 C          -0.9578   -0.5539    1.7315 C.3     1  UNL1        0.0464
      8 C          -1.8009    0.4004    0.8552 C.3     1  UNL1        0.1277
      9 O          -1.1153    1.6302    0.6300 O.3     1  UNL1       -0.3783
     10 C          -3.1225    0.7294    1.5522 C.ar    1  UNL1       -0.0031
     11 C          -3.3241    1.3660    2.7702 C.ar    1  UNL1       -0.0549
     12 C          -4.6351    1.5411    3.2166 C.ar    1  UNL1       -0.0614
     13 C          -5.7197    1.0872    2.4485 C.ar    1  UNL1       -0.0612
     14 C          -5.5126    0.4584    1.2167 C.ar    1  UNL1       -0.0537
     15 C          -4.2113    0.2868    0.7715 C.ar    1  UNL1       -0.0113
     16 C          -3.7068   -0.2908   -0.4558 C.ar    1  UNL1       -0.0113
     17 C          -4.3898   -0.8319   -1.5351 C.ar    1  UNL1       -0.0537
     18 C          -3.6522   -1.3001   -2.6259 C.ar    1  UNL1       -0.0612
     19 C          -2.2509   -1.2173   -2.6323 C.ar    1  UNL1       -0.0614
     20 C          -1.5613   -0.6716   -1.5463 C.ar    1  UNL1       -0.0549
     21 C          -2.2945   -0.2207   -0.4556 C.ar    1  UNL1       -0.0031
     22 C           4.3807   -0.8467   -1.5782 C.3     1  UNL1        0.0230
     23 C           4.9710    0.1998   -2.5418 C.3     1  UNL1        0.0569
     24 O           5.9258    1.0267   -1.8816 O.3     1  UNL1       -0.3937
     25 H           4.8266    1.5428    1.6718 H       1  UNL1        0.0242
     26 H           4.2937   -0.1174    1.9370 H       1  UNL1        0.0242
     27 H           5.5766    0.2327    0.7611 H       1  UNL1        0.0242
     28 H           2.6535    1.1538    0.5697 H       1  UNL1        0.0424
     29 H           3.8695    1.6273   -0.5526 H       1  UNL1        0.0424
     30 H           3.4107   -1.8660    0.7747 H       1  UNL1        0.0563
     31 H           2.5179   -2.3571   -0.6556 H       1  UNL1        0.0563
     32 H          -1.5158   -1.4762    1.9404 H       1  UNL1        0.0432
     33 H          -0.7547   -0.0796    2.7006 H       1  UNL1        0.0432
     34 H          -0.6786    1.5504   -0.2361 H       1  UNL1        0.2111
     35 H          -2.4844    1.7300    3.3551 H       1  UNL1        0.0621
     36 H          -4.8195    2.0394    4.1654 H       1  UNL1        0.0618
     37 H          -6.7339    1.2353    2.8118 H       1  UNL1        0.0618
     38 H          -6.3597    0.1224    0.6277 H       1  UNL1        0.0624
     39 H          -5.4730   -0.8895   -1.5451 H       1  UNL1        0.0624
     40 H          -4.1692   -1.7273   -3.4832 H       1  UNL1        0.0618
     41 H          -1.6958   -1.5800   -3.4943 H       1  UNL1        0.0618
     42 H          -0.4780   -0.6096   -1.5686 H       1  UNL1        0.0621
     43 H           4.0103   -1.6658   -2.2101 H       1  UNL1        0.0449
     44 H           5.1768   -1.2591   -0.9446 H       1  UNL1        0.0449
     45 H           5.4938   -0.3132   -3.3570 H       1  UNL1        0.0570
     46 H           4.1875    0.8276   -2.9803 H       1  UNL1        0.0570
     47 H           6.2299    1.6827   -2.5318 H       1  UNL1        0.2095
@<TRIPOS>BOND
     1     1     2    1
     2     2     3    1
     3     3     4    1
     4     4     5    1
     5     5     6    3
     6     6     7    1
     7     7     8    1
     8     8     9    1
     9     8    10    1
    10    10    11   ar
    11    11    12   ar
    12    12    13   ar
    13    13    14   ar
    14    14    15   ar
    15    15    16    1
    16    16    17   ar
    17    17    18   ar
    18    18    19   ar
    19    19    20   ar
    20    20    21   ar
    21     3    22    1
    22    22    23    1
    23    23    24    1
    24    21     8    1
    25    15    10   ar
    26    21    16   ar
    27     1    25    1
    28     1    26    1
    29     1    27    1
    30     2    28    1
    31     2    29    1
    32     4    30    1
    33     4    31    1
    34     7    32    1
    35     7    33    1
    36     9    34    1
    37    11    35    1
    38    12    36    1
    39    13    37    1
    40    14    38    1
    41    17    39    1
    42    18    40    1
    43    19    41    1
    44    20    42    1
    45    22    43    1
    46    22    44    1
    47    23    45    1
    48    23    46    1
    49    24    47    1
