@<TRIPOS>MOLECULE
*****
 40 41 0 0 0
SMALL
GASTEIGER

@<TRIPOS>ATOM
      1 C           4.2979   -0.4405    1.8976 C.3     1  UNL1       -0.0493
      2 C           3.5356    0.8066    1.4745 C.3     1  UNL1        0.0119
      3 N           2.7605    0.6197    0.2447 N.am    1  UNL1       -0.3005
      4 C           3.3650    1.0643   -1.0149 C.3     1  UNL1        0.0119
      5 C           4.2667    0.0141   -1.6422 C.3     1  UNL1       -0.0493
      6 C           1.5367   -0.0509    0.3452 C.2     1  UNL1        0.2354
      7 O           1.1214   -0.4691    1.4283 O.2     1  UNL1       -0.2736
      8 C           0.7536   -0.2679   -0.9406 C.3     1  UNL1        0.1013
      9 N          -0.5376   -0.8963   -0.7131 N.ar    1  UNL1       -0.3157
     10 C          -0.8101   -2.2349   -0.8368 C.ar    1  UNL1        0.0993
     11 N          -2.0827   -2.4958   -0.6140 N.ar    1  UNL1       -0.2177
     12 C          -2.6284   -1.2849   -0.3113 C.ar    1  UNL1        0.1678
     13 C          -1.7107   -0.2808   -0.3765 C.ar    1  UNL1        0.1519
     14 C          -2.0270    1.0797   -0.1152 C.ar    1  UNL1        0.2822
     15 O          -1.2095    1.9875   -0.2390 O.2     1  UNL1       -0.2652
     16 N          -3.3603    1.2633    0.2624 N.ar    1  UNL1       -0.2622
     17 C          -3.7994    2.6107    0.5664 C.3     1  UNL1        0.0196
     18 C          -4.3478    0.2571    0.3021 C.ar    1  UNL1        0.3331
     19 O          -5.5212    0.5296    0.5739 O.2     1  UNL1       -0.2462
     20 N          -3.9421   -1.0461    0.0125 N.ar    1  UNL1       -0.2796
     21 C          -4.8913   -2.1430    0.0539 C.3     1  UNL1        0.0181
     22 H           3.6260   -1.2917    2.0449 H       1  UNL1        0.0245
     23 H           4.8244   -0.2576    2.8396 H       1  UNL1        0.0245
     24 H           5.0405   -0.7298    1.1497 H       1  UNL1        0.0245
     25 H           2.8450    1.0885    2.2784 H       1  UNL1        0.0462
     26 H           4.2260    1.6466    1.3424 H       1  UNL1        0.0462
     27 H           2.5783    1.3238   -1.7277 H       1  UNL1        0.0462
     28 H           3.9267    1.9867   -0.8301 H       1  UNL1        0.0462
     29 H           3.7454   -0.9395   -1.7688 H       1  UNL1        0.0245
     30 H           4.6102    0.3508   -2.6255 H       1  UNL1        0.0245
     31 H           5.1525   -0.1656   -1.0271 H       1  UNL1        0.0245
     32 H           1.3214   -0.9242   -1.6076 H       1  UNL1        0.0588
     33 H           0.5649    0.6803   -1.4494 H       1  UNL1        0.0588
     34 H          -0.0540   -2.9679   -1.0885 H       1  UNL1        0.1030
     35 H          -2.9616    3.3007    0.6958 H       1  UNL1        0.0458
     36 H          -4.3956    2.6065    1.4847 H       1  UNL1        0.0458
     37 H          -4.4299    2.9643   -0.2559 H       1  UNL1        0.0458
     38 H          -4.9461   -2.6054   -0.9367 H       1  UNL1        0.0458
     39 H          -4.5517   -2.8828    0.7859 H       1  UNL1        0.0458
     40 H          -5.8918   -1.8063    0.3378 H       1  UNL1        0.0458
@<TRIPOS>BOND
     1     1     2    1
     2     2     3    1
     3     3     4    1
     4     4     5    1
     5     3     6   am
     6     6     7    2
     7     6     8    1
     8     8     9    1
     9     9    10   ar
    10    10    11   ar
    11    11    12   ar
    12    12    13   ar
    13    13    14   ar
    14    14    15    2
    15    14    16   ar
    16    16    17    1
    17    16    18   ar
    18    18    19    2
    19    18    20   ar
    20    20    21    1
    21    13     9   ar
    22    20    12   ar
    23     1    22    1
    24     1    23    1
    25     1    24    1
    26     2    25    1
    27     2    26    1
    28     4    27    1
    29     4    28    1
    30     5    29    1
    31     5    30    1
    32     5    31    1
    33     8    32    1
    34     8    33    1
    35    10    34    1
    36    17    35    1
    37    17    36    1
    38    17    37    1
    39    21    38    1
    40    21    39    1
    41    21    40    1
