@<TRIPOS>MOLECULE
*****
 43 44 0 0 0
SMALL
GASTEIGER

@<TRIPOS>ATOM
      1 C          -6.7932   -0.8874    0.9178 C.3     1  UNL1       -0.0493
      2 C          -5.9592   -1.0052   -0.3494 C.3     1  UNL1        0.0118
      3 N          -4.5938   -0.4992   -0.1878 N.am    1  UNL1       -0.3013
      4 C          -4.3207    0.8710   -0.6319 C.3     1  UNL1        0.0118
      5 C          -4.6141    1.9101    0.4379 C.3     1  UNL1       -0.0493
      6 C          -3.6695   -1.3288    0.4498 C.2     1  UNL1        0.2259
      7 O          -3.9740   -2.4645    0.8297 O.2     1  UNL1       -0.2747
      8 C          -2.2531   -0.8224    0.6693 C.3     1  UNL1        0.0793
      9 S          -1.2205   -1.2941   -0.7478 S.3     1  UNL1       -0.0563
     10 C           0.3006   -0.6361   -0.2389 C.ar    1  UNL1        0.2778
     11 N           0.4773    0.1401    0.8114 N.ar    1  UNL1       -0.1010
     12 N           1.8203    0.4500    0.8574 N.ar    1  UNL1       -0.1113
     13 C           2.3717   -0.1585   -0.1709 C.ar    1  UNL1        0.2213
     14 C           3.7910   -0.1802   -0.6184 C.3     1  UNL1        0.0372
     15 C           4.2007    1.1843   -1.2024 C.3     1  UNL1       -0.0417
     16 C           5.7018    1.4697   -1.0949 C.3     1  UNL1       -0.0524
     17 C           6.5286    0.1919   -1.1167 C.3     1  UNL1       -0.0530
     18 C           6.1739   -0.7356    0.0469 C.3     1  UNL1       -0.0524
     19 C           4.7250   -0.5965    0.5219 C.3     1  UNL1       -0.0417
     20 O           1.4686   -0.8631   -0.9185 O.2     1  UNL1       -0.4153
     21 H          -6.3238   -1.4096    1.7574 H       1  UNL1        0.0245
     22 H          -6.9312    0.1567    1.2110 H       1  UNL1        0.0245
     23 H          -7.7841   -1.3245    0.7579 H       1  UNL1        0.0245
     24 H          -5.9055   -2.0611   -0.6404 H       1  UNL1        0.0462
     25 H          -6.4469   -0.4758   -1.1749 H       1  UNL1        0.0462
     26 H          -4.9146    1.0755   -1.5298 H       1  UNL1        0.0462
     27 H          -3.2745    0.9556   -0.9370 H       1  UNL1        0.0462
     28 H          -4.2989    2.9010    0.0967 H       1  UNL1        0.0245
     29 H          -4.0909    1.6860    1.3723 H       1  UNL1        0.0245
     30 H          -5.6840    1.9609    0.6564 H       1  UNL1        0.0245
     31 H          -2.2344    0.2558    0.8404 H       1  UNL1        0.0476
     32 H          -1.8686   -1.2955    1.5804 H       1  UNL1        0.0476
     33 H           3.8854   -0.9319   -1.4150 H       1  UNL1        0.0396
     34 H           3.6595    2.0080   -0.7183 H       1  UNL1        0.0273
     35 H           3.8997    1.2143   -2.2584 H       1  UNL1        0.0273
     36 H           6.0080    2.1344   -1.9107 H       1  UNL1        0.0265
     37 H           5.9015    2.0101   -0.1610 H       1  UNL1        0.0265
     38 H           6.3551   -0.3321   -2.0653 H       1  UNL1        0.0265
     39 H           7.5979    0.4298   -1.0841 H       1  UNL1        0.0265
     40 H           6.3661   -1.7712   -0.2592 H       1  UNL1        0.0265
     41 H           6.8414   -0.5400    0.8952 H       1  UNL1        0.0265
     42 H           4.6821    0.1511    1.3259 H       1  UNL1        0.0273
     43 H           4.3992   -1.5432    0.9713 H       1  UNL1        0.0273
@<TRIPOS>BOND
     1     1     2    1
     2     2     3    1
     3     3     4    1
     4     4     5    1
     5     3     6   am
     6     6     7    2
     7     6     8    1
     8     8     9    1
     9     9    10    1
    10    10    11   ar
    11    11    12   ar
    12    12    13   ar
    13    13    14    1
    14    14    15    1
    15    15    16    1
    16    16    17    1
    17    17    18    1
    18    18    19    1
    19    13    20   ar
    20    20    10   ar
    21    19    14    1
    22     1    21    1
    23     1    22    1
    24     1    23    1
    25     2    24    1
    26     2    25    1
    27     4    26    1
    28     4    27    1
    29     5    28    1
    30     5    29    1
    31     5    30    1
    32     8    31    1
    33     8    32    1
    34    14    33    1
    35    15    34    1
    36    15    35    1
    37    16    36    1
    38    16    37    1
    39    17    38    1
    40    17    39    1
    41    18    40    1
    42    18    41    1
    43    19    42    1
    44    19    43    1
