@<TRIPOS>MOLECULE
*****
 41 47 0 0 0
SMALL
GASTEIGER

@<TRIPOS>ATOM
      1 SI          5.0723    0.3785    1.0202 Si      1  UNL1        0.0000
      2 C           6.4860    0.2337   -0.2188 C.2     1  UNL1        0.0000
      3 C           6.0269   -0.0499   -1.4515 C.2     1  UNL1        0.0000
      4 C           4.5814   -0.1740   -1.5615 C.2     1  UNL1        0.0000
      5 C           3.9019   -0.0102   -0.4080 C.2     1  UNL1        0.0000
      6 C           2.4638   -0.0283   -0.2508 C.ar    1  UNL1        0.0000
      7 C           1.6002    0.9593   -0.7718 C.ar    1  UNL1        0.0000
      8 C           0.1608    0.9424   -0.6106 C.ar    1  UNL1        0.0000
      9 C          -0.6505    1.9862   -1.1601 C.ar    1  UNL1        0.0000
     10 N          -0.2114    3.0585   -1.8585 N.ar    1  UNL1        0.0000
     11 S          -1.5554    3.9641   -2.2677 S.2     1  UNL1        0.0000
     12 N          -2.7646    3.0436   -1.5792 N.ar    1  UNL1        0.0000
     13 C          -2.1010    2.0350   -1.0362 C.ar    1  UNL1        0.0000
     14 C          -2.7351    0.9713   -0.3207 C.ar    1  UNL1        0.0000
     15 C          -4.0984    0.7834   -0.0603 C.ar    1  UNL1        0.0000
     16 N          -5.1959    1.5092   -0.3850 N.ar    1  UNL1        0.0000
     17 C          -6.3676    1.0040    0.0487 C.ar    1  UNL1        0.0000
     18 C          -6.5200   -0.1660    0.7785 C.ar    1  UNL1        0.0000
     19 C          -5.3933   -0.9117    1.1126 C.ar    1  UNL1        0.0000
     20 C          -4.1713   -0.4027    0.6708 C.ar    1  UNL1        0.0000
     21 N          -2.8851   -0.8777    0.8230 N.ar    1  UNL1        0.0000
     22 C          -1.9630   -0.0479    0.2170 C.ar    1  UNL1        0.0000
     23 C          -0.5613   -0.0933    0.0947 C.ar    1  UNL1        0.0000
     24 C           0.3219   -1.0705    0.5862 C.ar    1  UNL1        0.0000
     25 C           0.0357   -2.2207    1.2853 C.ar    1  UNL1        0.0000
     26 N           1.2275   -2.8738    1.5292 N.ar    1  UNL1        0.0000
     27 C           2.2762   -2.1634    0.9977 C.ar    1  UNL1        0.0000
     28 C           1.7534   -1.0327    0.4176 C.ar    1  UNL1        0.0000
     29 H           5.1386   -0.7006    2.0395 H       1  UNL1        0.0000
     30 H           4.9371    1.7635    1.5370 H       1  UNL1        0.0000
     31 H           7.5133    0.3710    0.0786 H       1  UNL1        0.0000
     32 H           6.6630   -0.1757   -2.3190 H       1  UNL1        0.0000
     33 H           4.1150   -0.3765   -2.5184 H       1  UNL1        0.0000
     34 H           2.0460    1.7894   -1.3241 H       1  UNL1        0.0000
     35 H          -7.2382    1.5977   -0.2200 H       1  UNL1        0.0000
     36 H          -7.5088   -0.4921    1.0835 H       1  UNL1        0.0000
     37 H          -5.4676   -1.8312    1.6814 H       1  UNL1        0.0000
     38 H          -2.6600   -1.7245    1.3190 H       1  UNL1        0.0000
     39 H          -0.8770   -2.6717    1.6377 H       1  UNL1        0.0000
     40 H           1.3171   -3.7559    2.0174 H       1  UNL1        0.0000
     41 H           3.2872   -2.5396    1.0783 H       1  UNL1        0.0000
@<TRIPOS>BOND
     1     1     2    1
     2     2     3    2
     3     3     4    1
     4     4     5    2
     5     5     6    1
     6     6     7   ar
     7     7     8   ar
     8     8     9   ar
     9     9    10   ar
    10    10    11   ar
    11    11    12   ar
    12    12    13   ar
    13    13    14   ar
    14    14    15   ar
    15    15    16   ar
    16    16    17   ar
    17    17    18   ar
    18    18    19   ar
    19    19    20   ar
    20    20    21   ar
    21    21    22   ar
    22    22    23   ar
    23    23    24   ar
    24    24    25   ar
    25    25    26   ar
    26    26    27   ar
    27    27    28   ar
    28     5     1    1
    29    28     6   ar
    30    23     8   ar
    31    28    24   ar
    32    13     9   ar
    33    22    14   ar
    34    20    15   ar
    35     1    29    1
    36     1    30    1
    37     2    31    1
    38     3    32    1
    39     4    33    1
    40     7    34    1
    41    17    35    1
    42    18    36    1
    43    19    37    1
    44    21    38    1
    45    25    39    1
    46    26    40    1
    47    27    41    1
