@<TRIPOS>MOLECULE
*****
 45 47 0 0 0
SMALL
GASTEIGER

@<TRIPOS>ATOM
      1 C           1.7104    1.4987    1.9797 C.3     1  UNL1       -0.0493
      2 C           2.8102    0.4574    2.1186 C.3     1  UNL1        0.0118
      3 N           2.8351   -0.4622    0.9809 N.am    1  UNL1       -0.3013
      4 C           3.6701   -0.0702   -0.1588 C.3     1  UNL1        0.0118
      5 C           5.0529   -0.6947   -0.0767 C.3     1  UNL1       -0.0493
      6 C           2.0037   -1.5779    1.0219 C.2     1  UNL1        0.2258
      7 O           1.2473   -1.7729    1.9809 O.2     1  UNL1       -0.2747
      8 C           2.0214   -2.5685   -0.1407 C.3     1  UNL1        0.0778
      9 S           0.3594   -2.7374   -0.8655 S.3     1  UNL1       -0.0766
     10 C           0.0180   -1.0762   -1.1911 C.ar    1  UNL1        0.1928
     11 N           0.7160   -0.3073   -1.9913 N.ar    1  UNL1       -0.1220
     12 N           0.1818    0.9538   -1.9202 N.ar    1  UNL1       -0.1251
     13 C          -0.8370    0.9255   -1.0804 C.ar    1  UNL1        0.2007
     14 C          -1.6359    2.0737   -0.7747 C.ar    1  UNL1        0.1717
     15 C          -1.4739    3.3676   -1.2475 C.ar    1  UNL1       -0.0128
     16 C          -2.5030    4.1595   -0.6841 C.ar    1  UNL1       -0.0232
     17 C          -3.2408    3.3112    0.1028 C.ar    1  UNL1        0.0927
     18 O          -2.7268    2.0571    0.0575 O.2     1  UNL1       -0.4598
     19 N          -0.9741   -0.3525   -0.5855 N.ar    1  UNL1       -0.2922
     20 C          -1.9125   -0.8209    0.4147 C.3     1  UNL1        0.0851
     21 C          -3.1357   -1.3731   -0.2218 C.ar    1  UNL1        0.1245
     22 C          -4.1294   -0.8392   -1.0187 C.ar    1  UNL1       -0.0189
     23 C          -5.0298   -1.8952   -1.2998 C.ar    1  UNL1       -0.0236
     24 C          -4.5356   -3.0021   -0.6530 C.ar    1  UNL1        0.0922
     25 O          -3.3902   -2.6947    0.0065 O.2     1  UNL1       -0.4660
     26 H           1.7239    2.1810    2.8352 H       1  UNL1        0.0245
     27 H           1.8386    2.0901    1.0673 H       1  UNL1        0.0245
     28 H           0.7227    1.0283    1.9347 H       1  UNL1        0.0245
     29 H           2.6539   -0.1118    3.0413 H       1  UNL1        0.0462
     30 H           3.7881    0.9427    2.2055 H       1  UNL1        0.0462
     31 H           3.1886   -0.3521   -1.0964 H       1  UNL1        0.0462
     32 H           3.7533    1.0221   -0.1735 H       1  UNL1        0.0462
     33 H           5.5701   -0.3817    0.8359 H       1  UNL1        0.0245
     34 H           4.9953   -1.7877   -0.0654 H       1  UNL1        0.0245
     35 H           5.6593   -0.3898   -0.9349 H       1  UNL1        0.0245
     36 H           2.7342   -2.3250   -0.9256 H       1  UNL1        0.0475
     37 H           2.3218   -3.5403    0.2638 H       1  UNL1        0.0475
     38 H          -0.6972    3.6888   -1.9296 H       1  UNL1        0.0656
     39 H          -2.6840    5.2141   -0.8370 H       1  UNL1        0.0649
     40 H          -4.1149    3.4378    0.7273 H       1  UNL1        0.1029
     41 H          -1.4152   -1.5749    1.0334 H       1  UNL1        0.0574
     42 H          -2.1554   -0.0005    1.0942 H       1  UNL1        0.0574
     43 H          -4.1951    0.1844   -1.3609 H       1  UNL1        0.0652
     44 H          -5.9279   -1.8554   -1.9005 H       1  UNL1        0.0649
     45 H          -4.8618   -4.0296   -0.5686 H       1  UNL1        0.1029
@<TRIPOS>BOND
     1     1     2    1
     2     2     3    1
     3     3     4    1
     4     4     5    1
     5     3     6   am
     6     6     7    2
     7     6     8    1
     8     8     9    1
     9     9    10    1
    10    10    11   ar
    11    11    12   ar
    12    12    13   ar
    13    13    14    1
    14    14    15   ar
    15    15    16   ar
    16    16    17   ar
    17    17    18   ar
    18    13    19   ar
    19    19    20    1
    20    20    21    1
    21    21    22   ar
    22    22    23   ar
    23    23    24   ar
    24    24    25   ar
    25    19    10   ar
    26    25    21   ar
    27    18    14   ar
    28     1    26    1
    29     1    27    1
    30     1    28    1
    31     2    29    1
    32     2    30    1
    33     4    31    1
    34     4    32    1
    35     5    33    1
    36     5    34    1
    37     5    35    1
    38     8    36    1
    39     8    37    1
    40    15    38    1
    41    16    39    1
    42    17    40    1
    43    20    41    1
    44    20    42    1
    45    22    43    1
    46    23    44    1
    47    24    45    1
