@<TRIPOS>MOLECULE
*****
 45 47 0 0 0
SMALL
GASTEIGER

@<TRIPOS>ATOM
      1 C          -4.7018   -0.7639   -2.0195 C.3     1  UNL1       -0.0494
      2 C          -4.2909    0.4574   -1.2093 C.3     1  UNL1        0.0093
      3 N          -3.2868    0.1055   -0.1967 N.pl3   1  UNL1       -0.3304
      4 C          -3.8148   -0.2611    1.1240 C.3     1  UNL1        0.0093
      5 C          -3.9030    0.9551    2.0351 C.3     1  UNL1       -0.0494
      6 C          -1.9205    0.1218   -0.4700 C.ar    1  UNL1        0.0300
      7 C          -1.4191    0.3397   -1.7776 C.ar    1  UNL1       -0.0401
      8 C          -0.0481    0.3629   -2.0869 C.ar    1  UNL1       -0.0520
      9 C          -0.9561   -0.0774    0.5370 C.ar    1  UNL1       -0.0361
     10 C           0.4064   -0.0546    0.2389 C.ar    1  UNL1       -0.0279
     11 C           0.8615    0.1651   -1.0708 C.ar    1  UNL1       -0.0135
     12 C           2.3073    0.1369   -1.0869 C.ar    1  UNL1       -0.0135
     13 C           3.1964    0.3009   -2.1377 C.ar    1  UNL1       -0.0531
     14 C           4.5670    0.2252   -1.8701 C.ar    1  UNL1       -0.0509
     15 C           5.0285   -0.0122   -0.5619 C.ar    1  UNL1        0.0145
     16 C           6.4798   -0.0890   -0.2972 C.2     1  UNL1        0.1502
     17 O           7.3146    0.0473   -1.1827 O.2     1  UNL1       -0.2957
     18 C           4.1351   -0.1783    0.5020 C.ar    1  UNL1       -0.0469
     19 C           2.7760   -0.1014    0.2257 C.ar    1  UNL1       -0.0290
     20 C           1.5919   -0.2436    1.1878 C.3     1  UNL1        0.0163
     21 C           1.5688   -1.6367    1.8270 C.3     1  UNL1       -0.0517
     22 C           1.6205    0.8532    2.2584 C.3     1  UNL1       -0.0517
     23 H          -5.1200   -1.5423   -1.3728 H       1  UNL1        0.0245
     24 H          -5.4639   -0.4896   -2.7556 H       1  UNL1        0.0245
     25 H          -3.8538   -1.2000   -2.5560 H       1  UNL1        0.0245
     26 H          -5.1850    0.8610   -0.7167 H       1  UNL1        0.0461
     27 H          -3.9460    1.2658   -1.8635 H       1  UNL1        0.0461
     28 H          -4.8219   -0.6835    1.0140 H       1  UNL1        0.0461
     29 H          -3.2279   -1.0600    1.5909 H       1  UNL1        0.0461
     30 H          -2.9217    1.4083    2.2048 H       1  UNL1        0.0245
     31 H          -4.5523    1.7238    1.6030 H       1  UNL1        0.0245
     32 H          -4.3170    0.6693    3.0071 H       1  UNL1        0.0245
     33 H          -2.0976    0.4891   -2.6121 H       1  UNL1        0.0636
     34 H           0.2733    0.5321   -3.1088 H       1  UNL1        0.0624
     35 H          -1.2436   -0.2411    1.5686 H       1  UNL1        0.0639
     36 H           2.8476    0.4843   -3.1487 H       1  UNL1        0.0624
     37 H           5.2802    0.3515   -2.6830 H       1  UNL1        0.0625
     38 H           6.7796   -0.2771    0.7474 H       1  UNL1        0.1081
     39 H           4.4843   -0.3615    1.5127 H       1  UNL1        0.0628
     40 H           0.6860   -1.7695    2.4629 H       1  UNL1        0.0241
     41 H           1.5486   -2.4294    1.0691 H       1  UNL1        0.0241
     42 H           2.4539   -1.8038    2.4516 H       1  UNL1        0.0241
     43 H           2.5074    0.7649    2.8964 H       1  UNL1        0.0241
     44 H           0.7395    0.7999    2.9083 H       1  UNL1        0.0241
     45 H           1.6373    1.8548    1.8113 H       1  UNL1        0.0241
@<TRIPOS>BOND
     1     1     2    1
     2     2     3    1
     3     3     4    1
     4     4     5    1
     5     3     6    1
     6     6     7   ar
     7     7     8   ar
     8     6     9   ar
     9     9    10   ar
    10    10    11   ar
    11    11    12    1
    12    12    13   ar
    13    13    14   ar
    14    14    15   ar
    15    15    16    1
    16    16    17    2
    17    15    18   ar
    18    12    19   ar
    19    19    20    1
    20    20    21    1
    21    20    22    1
    22    11     8   ar
    23    20    10    1
    24    19    18   ar
    25     1    23    1
    26     1    24    1
    27     1    25    1
    28     2    26    1
    29     2    27    1
    30     4    28    1
    31     4    29    1
    32     5    30    1
    33     5    31    1
    34     5    32    1
    35     7    33    1
    36     8    34    1
    37     9    35    1
    38    13    36    1
    39    14    37    1
    40    16    38    1
    41    18    39    1
    42    21    40    1
    43    21    41    1
    44    21    42    1
    45    22    43    1
    46    22    44    1
    47    22    45    1
