@<TRIPOS>MOLECULE
*****
 46 48 0 0 0
SMALL
GASTEIGER

@<TRIPOS>ATOM
      1 C          -5.8538    1.1977   -1.4914 C.3     1  UNL1       -0.0494
      2 C          -5.6150    0.9208   -0.0139 C.3     1  UNL1        0.0093
      3 N          -4.7280   -0.2358    0.1697 N.pl3   1  UNL1       -0.3304
      4 C          -5.3955   -1.5359    0.3121 C.3     1  UNL1        0.0093
      5 C          -5.6581   -1.8585    1.7762 C.3     1  UNL1       -0.0494
      6 C          -3.3442   -0.1042    0.2084 C.ar    1  UNL1        0.0298
      7 C          -2.6945    1.1130   -0.0563 C.ar    1  UNL1       -0.0389
      8 C          -1.2958    1.2564   -0.0195 C.ar    1  UNL1       -0.0387
      9 C          -0.4835    0.1749    0.2903 C.ar    1  UNL1        0.0338
     10 N           0.9245    0.2259    0.3447 N.am    1  UNL1       -0.2815
     11 C           1.7292    1.3395    0.1852 C.2     1  UNL1        0.2484
     12 O           1.3630    2.4984    0.0331 O.2     1  UNL1       -0.2699
     13 C           3.1937    1.0700    0.2517 C.ar    1  UNL1        0.0407
     14 C           4.0257    2.0400    0.8289 C.ar    1  UNL1       -0.0459
     15 C           5.4041    1.8292    0.9053 C.ar    1  UNL1       -0.0156
     16 C           5.9540    0.6563    0.3934 C.ar    1  UNL1        0.1621
     17 C           5.1255   -0.3178   -0.1747 C.ar    1  UNL1        0.1628
     18 C           3.7500   -0.1066   -0.2660 C.ar    1  UNL1       -0.0042
     19 O           5.5965   -1.5045   -0.6769 O.3     1  UNL1       -0.4849
     20 C           6.9392   -1.7600   -0.2463 C.3     1  UNL1        0.1237
     21 C           7.7957   -0.5120   -0.3826 C.3     1  UNL1        0.1237
     22 O           7.3158    0.5247    0.4812 O.3     1  UNL1       -0.4849
     23 C          -1.0950   -1.0486    0.5549 C.ar    1  UNL1       -0.0387
     24 C          -2.4934   -1.1786    0.5139 C.ar    1  UNL1       -0.0389
     25 H          -4.9228    1.4306   -2.0168 H       1  UNL1        0.0245
     26 H          -6.3053    0.3312   -1.9858 H       1  UNL1        0.0245
     27 H          -6.5327    2.0478   -1.6113 H       1  UNL1        0.0245
     28 H          -5.2348    1.8127    0.4967 H       1  UNL1        0.0461
     29 H          -6.5844    0.7205    0.4606 H       1  UNL1        0.0461
     30 H          -4.8298   -2.3401   -0.1715 H       1  UNL1        0.0461
     31 H          -6.3580   -1.5160   -0.2152 H       1  UNL1        0.0461
     32 H          -4.7295   -1.9185    2.3518 H       1  UNL1        0.0245
     33 H          -6.1743   -2.8195    1.8643 H       1  UNL1        0.0245
     34 H          -6.2870   -1.0920    2.2411 H       1  UNL1        0.0245
     35 H          -3.2575    2.0041   -0.3161 H       1  UNL1        0.0637
     36 H          -0.8836    2.2345   -0.2461 H       1  UNL1        0.0637
     37 H           1.3806   -0.6427    0.5893 H       1  UNL1        0.1551
     38 H           3.5995    2.9636    1.2171 H       1  UNL1        0.0626
     39 H           6.0469    2.5849    1.3488 H       1  UNL1        0.0655
     40 H           3.1352   -0.8542   -0.7580 H       1  UNL1        0.0663
     41 H           7.3400   -2.5643   -0.8710 H       1  UNL1        0.0731
     42 H           6.9097   -2.1150    0.7913 H       1  UNL1        0.0731
     43 H           7.7969   -0.1356   -1.4131 H       1  UNL1        0.0731
     44 H           8.8297   -0.7294   -0.0973 H       1  UNL1        0.0731
     45 H          -0.5047   -1.9265    0.8022 H       1  UNL1        0.0637
     46 H          -2.8944   -2.1604    0.7440 H       1  UNL1        0.0637
@<TRIPOS>BOND
     1     1     2    1
     2     2     3    1
     3     3     4    1
     4     4     5    1
     5     3     6    1
     6     6     7   ar
     7     7     8   ar
     8     8     9   ar
     9     9    10    1
    10    10    11   am
    11    11    12    2
    12    11    13    1
    13    13    14   ar
    14    14    15   ar
    15    15    16   ar
    16    16    17   ar
    17    17    18   ar
    18    17    19    1
    19    19    20    1
    20    20    21    1
    21    21    22    1
    22     9    23   ar
    23    23    24   ar
    24    24     6   ar
    25    18    13   ar
    26    22    16    1
    27     1    25    1
    28     1    26    1
    29     1    27    1
    30     2    28    1
    31     2    29    1
    32     4    30    1
    33     4    31    1
    34     5    32    1
    35     5    33    1
    36     5    34    1
    37     7    35    1
    38     8    36    1
    39    10    37    1
    40    14    38    1
    41    15    39    1
    42    18    40    1
    43    20    41    1
    44    20    42    1
    45    21    43    1
    46    21    44    1
    47    23    45    1
    48    24    46    1
