@<TRIPOS>MOLECULE
*****
 44 44 0 0 0
SMALL
GASTEIGER

@<TRIPOS>ATOM
      1 C           3.3424   -0.7141   -1.5557 C.3     1  UNL1       -0.0493
      2 C           3.2770   -1.1410   -0.0965 C.3     1  UNL1        0.0120
      3 N           2.7238   -0.0946    0.7506 N.pl3   1  UNL1       -0.3000
      4 C           3.6064    0.8031    1.4834 C.3     1  UNL1        0.0120
      5 C           3.8117    2.1200    0.7488 C.3     1  UNL1       -0.0493
      6 C           1.3544    0.0727    0.8315 C.ar    1  UNL1        0.2231
      7 N           0.8725    1.0276    1.6104 N.ar    1  UNL1       -0.1885
      8 C          -0.4472    1.1377    1.6348 C.ar    1  UNL1        0.1948
      9 S          -1.0999    2.3860    2.7248 S.3     1  UNL1       -0.0746
     10 C          -2.8112    2.4752    2.1246 C.3     1  UNL1        0.0983
     11 C          -2.9003    2.9791    0.7044 C.2     1  UNL1        0.3151
     12 O          -2.0458    3.5349    0.0348 O.2     1  UNL1       -0.2501
     13 O          -4.1372    2.7996    0.1859 O.3     1  UNL1       -0.4800
     14 N          -1.2986    0.3716    0.9664 N.ar    1  UNL1       -0.1885
     15 C          -0.7476   -0.5677    0.2112 C.ar    1  UNL1        0.2231
     16 N          -1.5735   -1.4150   -0.5055 N.pl3   1  UNL1       -0.3000
     17 C          -0.9791   -2.3793   -1.4226 C.3     1  UNL1        0.0120
     18 C          -0.6168   -3.6635   -0.6909 C.3     1  UNL1       -0.0493
     19 C          -2.9981   -1.1307   -0.5969 C.3     1  UNL1        0.0120
     20 C          -3.2900   -0.1195   -1.6967 C.3     1  UNL1       -0.0493
     21 N           0.5679   -0.7388    0.1307 N.ar    1  UNL1       -0.1807
     22 H           3.7503   -1.5257   -2.1666 H       1  UNL1        0.0245
     23 H           2.3539   -0.4597   -1.9501 H       1  UNL1        0.0245
     24 H           3.9886    0.1590   -1.6848 H       1  UNL1        0.0245
     25 H           2.7019   -2.0709   -0.0035 H       1  UNL1        0.0462
     26 H           4.2907   -1.3952    0.2366 H       1  UNL1        0.0462
     27 H           4.5853    0.3297    1.6270 H       1  UNL1        0.0462
     28 H           3.2270    0.9927    2.4954 H       1  UNL1        0.0462
     29 H           2.8668    2.6487    0.5901 H       1  UNL1        0.0245
     30 H           4.4710    2.7743    1.3280 H       1  UNL1        0.0245
     31 H           4.2740    1.9605   -0.2297 H       1  UNL1        0.0245
     32 H          -3.3569    3.1762    2.7636 H       1  UNL1        0.0495
     33 H          -3.2861    1.4926    2.2044 H       1  UNL1        0.0495
     34 H          -4.0598    3.1787   -0.7156 H       1  UNL1        0.2951
     35 H          -0.1017   -1.9685   -1.9372 H       1  UNL1        0.0462
     36 H          -1.6928   -2.6301   -2.2172 H       1  UNL1        0.0462
     37 H          -1.4980   -4.1016   -0.2104 H       1  UNL1        0.0245
     38 H           0.1342   -3.4877    0.0856 H       1  UNL1        0.0245
     39 H          -0.2109   -4.3978   -1.3937 H       1  UNL1        0.0245
     40 H          -3.5405   -2.0589   -0.8160 H       1  UNL1        0.0462
     41 H          -3.4034   -0.7763    0.3587 H       1  UNL1        0.0462
     42 H          -2.7661    0.8254   -1.5234 H       1  UNL1        0.0245
     43 H          -4.3633    0.0891   -1.7439 H       1  UNL1        0.0245
     44 H          -2.9751   -0.4978   -2.6747 H       1  UNL1        0.0245
@<TRIPOS>BOND
     1     1     2    1
     2     2     3    1
     3     3     4    1
     4     4     5    1
     5     3     6    1
     6     6     7   ar
     7     7     8   ar
     8     8     9    1
     9     9    10    1
    10    10    11    1
    11    11    12    2
    12    11    13    1
    13     8    14   ar
    14    14    15   ar
    15    15    16    1
    16    16    17    1
    17    17    18    1
    18    16    19    1
    19    19    20    1
    20    15    21   ar
    21    21     6   ar
    22     1    22    1
    23     1    23    1
    24     1    24    1
    25     2    25    1
    26     2    26    1
    27     4    27    1
    28     4    28    1
    29     5    29    1
    30     5    30    1
    31     5    31    1
    32    10    32    1
    33    10    33    1
    34    13    34    1
    35    17    35    1
    36    17    36    1
    37    18    37    1
    38    18    38    1
    39    18    39    1
    40    19    40    1
    41    19    41    1
    42    20    42    1
    43    20    43    1
    44    20    44    1
