@<TRIPOS>MOLECULE
*****
 36 37 0 0 0
SMALL
GASTEIGER

@<TRIPOS>ATOM
      1 C          -0.2373   -3.3236   -1.4470 C.3     1  UNL1       -0.0493
      2 C          -0.8177   -2.3406   -2.4572 C.3     1  UNL1        0.0107
      3 N          -1.4583   -1.1615   -1.8392 N.pl3   1  UNL1       -0.3147
      4 C          -2.6463   -1.4600   -1.0193 C.3     1  UNL1        0.0107
      5 C          -3.5719   -0.2525   -0.9333 C.3     1  UNL1       -0.0493
      6 C          -0.5347   -0.2856   -1.2349 C.ar    1  UNL1        0.1395
      7 N          -0.4256   -0.3040    0.1173 N.ar    1  UNL1       -0.2306
      8 C           0.4508    0.5066    0.7377 C.ar    1  UNL1        0.0766
      9 C           0.5589    0.4714    2.1210 C.ar    1  UNL1        0.0061
     10 C           1.4533    1.2905    2.8192 C.ar    1  UNL1        0.1221
     11 O           1.4341    1.1304    4.1772 O.3     1  UNL1       -0.4950
     12 C           2.3197    1.9436    4.9368 C.3     1  UNL1        0.0788
     13 C           2.2642    2.1720    2.1109 C.ar    1  UNL1       -0.0193
     14 C           2.1750    2.2278    0.7190 C.ar    1  UNL1       -0.0491
     15 C           1.2732    1.3993    0.0310 C.ar    1  UNL1        0.0020
     16 C           1.1538    1.4317   -1.3608 C.ar    1  UNL1       -0.0318
     17 C           0.2419    0.5885   -2.0035 C.ar    1  UNL1        0.0922
     18 C           0.1057    0.6783   -3.4256 C.1     1  UNL1        0.1026
     19 N           0.0490    0.7773   -4.5816 N.1     1  UNL1       -0.1908
     20 H           0.1946   -4.1833   -1.9697 H       1  UNL1        0.0245
     21 H           0.5558   -2.8662   -0.8475 H       1  UNL1        0.0245
     22 H          -1.0044   -3.7005   -0.7637 H       1  UNL1        0.0245
     23 H          -0.0292   -2.0395   -3.1562 H       1  UNL1        0.0461
     24 H          -1.5664   -2.8610   -3.0672 H       1  UNL1        0.0461
     25 H          -3.2137   -2.2689   -1.4968 H       1  UNL1        0.0461
     26 H          -2.3842   -1.8194   -0.0167 H       1  UNL1        0.0461
     27 H          -3.1041    0.5815   -0.4010 H       1  UNL1        0.0245
     28 H          -4.4894   -0.5183   -0.3989 H       1  UNL1        0.0245
     29 H          -3.8484    0.0998   -1.9327 H       1  UNL1        0.0245
     30 H          -0.0744   -0.2172    2.6759 H       1  UNL1        0.0676
     31 H           2.0868    3.0059    4.8098 H       1  UNL1        0.0660
     32 H           3.3639    1.7340    4.6823 H       1  UNL1        0.0660
     33 H           2.1782    1.6956    5.9932 H       1  UNL1        0.0660
     34 H           2.9725    2.8272    2.6071 H       1  UNL1        0.0654
     35 H           2.8131    2.9222    0.1765 H       1  UNL1        0.0625
     36 H           1.7614    2.1184   -1.9472 H       1  UNL1        0.0638
@<TRIPOS>BOND
     1     1     2    1
     2     2     3    1
     3     3     4    1
     4     4     5    1
     5     3     6    1
     6     6     7   ar
     7     7     8   ar
     8     8     9   ar
     9     9    10   ar
    10    10    11    1
    11    11    12    1
    12    10    13   ar
    13    13    14   ar
    14    14    15   ar
    15    15    16   ar
    16    16    17   ar
    17    17    18    1
    18    18    19    3
    19    17     6   ar
    20    15     8   ar
    21     1    20    1
    22     1    21    1
    23     1    22    1
    24     2    23    1
    25     2    24    1
    26     4    25    1
    27     4    26    1
    28     5    27    1
    29     5    28    1
    30     5    29    1
    31     9    30    1
    32    12    31    1
    33    12    32    1
    34    12    33    1
    35    13    34    1
    36    14    35    1
    37    16    36    1
