@<TRIPOS>MOLECULE
*****
 45 47 0 0 0
SMALL
GASTEIGER

@<TRIPOS>ATOM
      1 C           4.3394   -1.8188    1.0136 C.3     1  UNL1       -0.0523
      2 C           3.0908   -0.9541    0.8725 C.3     1  UNL1       -0.0035
      3 N           3.0130   -0.2409   -0.4132 N.3     1  UNL1       -0.2944
      4 C           4.1289    0.6834   -0.6640 C.3     1  UNL1       -0.0035
      5 C           4.2927    1.8314    0.3279 C.3     1  UNL1       -0.0523
      6 C           1.6975    0.4307   -0.5832 C.3     1  UNL1        0.0787
      7 C           0.5682   -0.5612   -0.8164 C.2     1  UNL1        0.2461
      8 O           0.7199   -1.7238   -1.1817 O.2     1  UNL1       -0.2709
      9 N          -0.7459   -0.0854   -0.5471 N.ar    1  UNL1       -0.2828
     10 C          -1.8559   -0.9152   -0.3681 C.ar    1  UNL1        0.0307
     11 C          -2.9173   -0.1716    0.1010 C.ar    1  UNL1       -0.0185
     12 C          -2.5258    1.1849    0.0882 C.ar    1  UNL1        0.0037
     13 C          -3.2109    2.3780    0.4044 C.ar    1  UNL1       -0.0523
     14 C          -2.5886    3.6118    0.2230 C.ar    1  UNL1       -0.0611
     15 C          -1.3009    3.6693   -0.2849 C.ar    1  UNL1       -0.0598
     16 C          -0.5974    2.5001   -0.5973 C.ar    1  UNL1       -0.0372
     17 C          -1.2009    1.2413   -0.3763 C.ar    1  UNL1        0.0569
     18 C          -4.2333   -0.7693    0.4768 C.3     1  UNL1       -0.0254
     19 C          -4.1136   -2.2862    0.6882 C.3     1  UNL1       -0.0486
     20 C          -3.3150   -2.9481   -0.4434 C.3     1  UNL1       -0.0474
     21 C          -1.8767   -2.4064   -0.5394 C.3     1  UNL1       -0.0116
     22 H           4.4494   -2.4962    0.1603 H       1  UNL1        0.0242
     23 H           4.2674   -2.4308    1.9190 H       1  UNL1        0.0242
     24 H           5.2472   -1.2145    1.1003 H       1  UNL1        0.0242
     25 H           3.0295   -0.2590    1.7182 H       1  UNL1        0.0424
     26 H           2.2333   -1.6300    0.9706 H       1  UNL1        0.0424
     27 H           5.0683    0.1209   -0.7149 H       1  UNL1        0.0424
     28 H           4.0142    1.1079   -1.6699 H       1  UNL1        0.0424
     29 H           4.5094    1.4687    1.3369 H       1  UNL1        0.0242
     30 H           5.1307    2.4664    0.0214 H       1  UNL1        0.0242
     31 H           3.4003    2.4631    0.3682 H       1  UNL1        0.0242
     32 H           1.7404    1.0519   -1.4840 H       1  UNL1        0.0524
     33 H           1.4952    1.0432    0.3007 H       1  UNL1        0.0524
     34 H          -4.2331    2.3384    0.7710 H       1  UNL1        0.0624
     35 H          -3.1240    4.5275    0.4598 H       1  UNL1        0.0618
     36 H          -0.8320    4.6371   -0.4502 H       1  UNL1        0.0618
     37 H           0.3928    2.6107   -1.0215 H       1  UNL1        0.0638
     38 H          -4.9537   -0.5683   -0.3256 H       1  UNL1        0.0314
     39 H          -4.6199   -0.3036    1.3903 H       1  UNL1        0.0314
     40 H          -5.1149   -2.7273    0.7486 H       1  UNL1        0.0269
     41 H          -3.6148   -2.4876    1.6449 H       1  UNL1        0.0269
     42 H          -3.8342   -2.7702   -1.3943 H       1  UNL1        0.0269
     43 H          -3.2856   -4.0337   -0.2969 H       1  UNL1        0.0269
     44 H          -1.2659   -2.8662    0.2466 H       1  UNL1        0.0328
     45 H          -1.4685   -2.6986   -1.5123 H       1  UNL1        0.0328
@<TRIPOS>BOND
     1     1     2    1
     2     2     3    1
     3     3     4    1
     4     4     5    1
     5     3     6    1
     6     6     7    1
     7     7     8    2
     8     7     9   am
     9     9    10   ar
    10    10    11   ar
    11    11    12   ar
    12    12    13   ar
    13    13    14   ar
    14    14    15   ar
    15    15    16   ar
    16    16    17   ar
    17    11    18    1
    18    18    19    1
    19    19    20    1
    20    20    21    1
    21    17     9   ar
    22    21    10    1
    23    17    12   ar
    24     1    22    1
    25     1    23    1
    26     1    24    1
    27     2    25    1
    28     2    26    1
    29     4    27    1
    30     4    28    1
    31     5    29    1
    32     5    30    1
    33     5    31    1
    34     6    32    1
    35     6    33    1
    36    13    34    1
    37    14    35    1
    38    15    36    1
    39    16    37    1
    40    18    38    1
    41    18    39    1
    42    19    40    1
    43    19    41    1
    44    20    42    1
    45    20    43    1
    46    21    44    1
    47    21    45    1
