@<TRIPOS>MOLECULE
*****
 42 43 0 0 0
SMALL
GASTEIGER

@<TRIPOS>ATOM
      1 C          -4.5872   -0.7148   -1.4191 C.3     1  UNL1       -0.0523
      2 C          -4.0156    0.4783   -0.6580 C.3     1  UNL1       -0.0036
      3 N          -2.6924    0.1944   -0.0663 N.3     1  UNL1       -0.2985
      4 C          -2.3631    1.1946    0.9727 C.3     1  UNL1       -0.0036
      5 C          -3.1303    0.9569    2.2707 C.3     1  UNL1       -0.0523
      6 C          -1.6439    0.2003   -1.1191 C.3     1  UNL1        0.0293
      7 C          -0.3177   -0.3737   -0.6724 C.ar    1  UNL1        0.0327
      8 C          -0.0931   -1.6420   -0.2565 C.ar    1  UNL1        0.0213
      9 C          -1.1835   -2.6851   -0.1972 C.3     1  UNL1       -0.0240
     10 N           1.1546   -2.0870    0.1401 N.ar    1  UNL1       -0.3577
     11 C           2.2630   -1.2408    0.2129 C.ar    1  UNL1        0.0505
     12 C           3.5015   -1.7095    0.6519 C.ar    1  UNL1       -0.0342
     13 C           4.6071   -0.8536    0.6810 C.ar    1  UNL1       -0.0180
     14 C           4.4973    0.4759    0.2628 C.ar    1  UNL1        0.1209
     15 O           5.6558    1.1976    0.3439 O.3     1  UNL1       -0.4951
     16 C           5.5962    2.5566   -0.0738 C.3     1  UNL1        0.0788
     17 C           3.2676    0.9475   -0.1908 C.ar    1  UNL1       -0.0072
     18 C           2.1611    0.0861   -0.2169 C.ar    1  UNL1        0.0487
     19 C           0.8476    0.5713   -0.7016 C.ar    1  UNL1        0.1941
     20 O           0.7341    1.7254   -1.1059 O.2     1  UNL1       -0.2868
     21 H          -4.6141   -1.6081   -0.7862 H       1  UNL1        0.0242
     22 H          -5.6142   -0.4974   -1.7316 H       1  UNL1        0.0242
     23 H          -4.0153   -0.9466   -2.3216 H       1  UNL1        0.0242
     24 H          -4.7432    0.7079    0.1274 H       1  UNL1        0.0424
     25 H          -3.9771    1.3585   -1.3121 H       1  UNL1        0.0424
     26 H          -2.5370    2.2156    0.6103 H       1  UNL1        0.0424
     27 H          -1.3018    1.1336    1.2395 H       1  UNL1        0.0424
     28 H          -4.2025    1.1404    2.1617 H       1  UNL1        0.0242
     29 H          -2.9889   -0.0687    2.6281 H       1  UNL1        0.0242
     30 H          -2.7616    1.6344    3.0483 H       1  UNL1        0.0242
     31 H          -1.9583   -0.4069   -1.9764 H       1  UNL1        0.0477
     32 H          -1.5380    1.2148   -1.5230 H       1  UNL1        0.0477
     33 H          -0.8232   -3.6324   -0.6144 H       1  UNL1        0.0292
     34 H          -1.4787   -2.8603    0.8426 H       1  UNL1        0.0292
     35 H          -2.0749   -2.4167   -0.7681 H       1  UNL1        0.0292
     36 H           1.2154   -2.9999    0.5759 H       1  UNL1        0.1656
     37 H           3.6216   -2.7401    0.9736 H       1  UNL1        0.0639
     38 H           5.5672   -1.2280    1.0297 H       1  UNL1        0.0655
     39 H           4.9027    3.1309    0.5493 H       1  UNL1        0.0660
     40 H           5.3328    2.6323   -1.1339 H       1  UNL1        0.0660
     41 H           6.5935    2.9888    0.0530 H       1  UNL1        0.0660
     42 H           3.1363    1.9697   -0.5304 H       1  UNL1        0.0662
@<TRIPOS>BOND
     1     1     2    1
     2     2     3    1
     3     3     4    1
     4     4     5    1
     5     3     6    1
     6     6     7    1
     7     7     8   ar
     8     8     9    1
     9     8    10   ar
    10    10    11   ar
    11    11    12   ar
    12    12    13   ar
    13    13    14   ar
    14    14    15    1
    15    15    16    1
    16    14    17   ar
    17    17    18   ar
    18    18    19   ar
    19    19    20    2
    20    19     7   ar
    21    18    11   ar
    22     1    21    1
    23     1    22    1
    24     1    23    1
    25     2    24    1
    26     2    25    1
    27     4    26    1
    28     4    27    1
    29     5    28    1
    30     5    29    1
    31     5    30    1
    32     6    31    1
    33     6    32    1
    34     9    33    1
    35     9    34    1
    36     9    35    1
    37    10    36    1
    38    12    37    1
    39    13    38    1
    40    16    39    1
    41    16    40    1
    42    16    41    1
    43    17    42    1
