@<TRIPOS>MOLECULE
*****
 38 39 0 0 0
SMALL
GASTEIGER

@<TRIPOS>ATOM
      1 C          -3.9754    1.0063    1.7308 C.3     1  UNL1       -0.0524
      2 C          -2.5908    0.5483    1.2837 C.3     1  UNL1       -0.0039
      3 N          -2.3374    0.8161   -0.1320 N.3     1  UNL1       -0.3013
      4 C          -3.2106    0.1332   -1.0920 C.3     1  UNL1       -0.0039
      5 C          -3.4726   -1.3545   -0.8716 C.3     1  UNL1       -0.0524
      6 C          -0.9115    0.8073   -0.4881 C.3     1  UNL1        0.0151
      7 C          -0.1611   -0.5333   -0.3961 C.3     1  UNL1        0.0329
      8 N           1.2633   -0.3753   -0.6034 N.am    1  UNL1       -0.2642
      9 C           1.8763   -0.4246   -1.8406 C.2     1  UNL1        0.2731
     10 O           1.4198   -0.6360   -2.9459 O.2     1  UNL1       -0.2678
     11 C           3.3499   -0.1293   -1.5873 C.2     1  UNL1        0.1732
     12 N           4.3269   -0.0897   -2.4373 N.2     1  UNL1       -0.0817
     13 O           3.9745   -0.3612   -3.7771 O.2     1  UNL1       -0.4086
     14 C           3.4695    0.1152   -0.1553 C.ar    1  UNL1        0.0301
     15 C           4.5773    0.4474    0.5993 C.ar    1  UNL1       -0.0505
     16 C           4.3786    0.6373    1.9674 C.ar    1  UNL1       -0.0610
     17 C           3.0969    0.4939    2.5346 C.ar    1  UNL1       -0.0600
     18 C           1.9889    0.1557    1.7461 C.ar    1  UNL1       -0.0396
     19 C           2.1943   -0.0343    0.3926 C.ar    1  UNL1        0.0461
     20 H          -4.7742    0.4347    1.2496 H       1  UNL1        0.0242
     21 H          -4.1289    2.0677    1.5084 H       1  UNL1        0.0242
     22 H          -4.0802    0.8733    2.8127 H       1  UNL1        0.0242
     23 H          -1.8649    1.1031    1.8920 H       1  UNL1        0.0424
     24 H          -2.4519   -0.5108    1.5278 H       1  UNL1        0.0424
     25 H          -4.1805    0.6463   -1.0888 H       1  UNL1        0.0424
     26 H          -2.8272    0.2769   -2.1102 H       1  UNL1        0.0424
     27 H          -2.5532   -1.9425   -0.8556 H       1  UNL1        0.0242
     28 H          -4.0953   -1.7414   -1.6855 H       1  UNL1        0.0242
     29 H          -4.0123   -1.5391    0.0619 H       1  UNL1        0.0242
     30 H          -0.4021    1.5446    0.1469 H       1  UNL1        0.0442
     31 H          -0.7956    1.2089   -1.5039 H       1  UNL1        0.0442
     32 H          -0.5265   -1.2055   -1.1792 H       1  UNL1        0.0481
     33 H          -0.3251   -1.0280    0.5664 H       1  UNL1        0.0481
     34 H           3.0044   -0.4920   -3.8250 H       1  UNL1        0.3278
     35 H           5.5563    0.5580    0.1443 H       1  UNL1        0.0625
     36 H           5.2215    0.9014    2.6035 H       1  UNL1        0.0618
     37 H           2.9680    0.6499    3.6045 H       1  UNL1        0.0618
     38 H           1.0109    0.0521    2.2024 H       1  UNL1        0.0636
@<TRIPOS>BOND
     1     1     2    1
     2     2     3    1
     3     3     4    1
     4     4     5    1
     5     3     6    1
     6     6     7    1
     7     7     8    1
     8     8     9   am
     9     9    10    2
    10     9    11    1
    11    11    12    2
    12    12    13    1
    13    11    14    1
    14    14    15   ar
    15    15    16   ar
    16    16    17   ar
    17    17    18   ar
    18    18    19   ar
    19    19     8    1
    20    19    14   ar
    21     1    20    1
    22     1    21    1
    23     1    22    1
    24     2    23    1
    25     2    24    1
    26     4    25    1
    27     4    26    1
    28     5    27    1
    29     5    28    1
    30     5    29    1
    31     6    30    1
    32     6    31    1
    33     7    32    1
    34     7    33    1
    35    13    34    1
    36    15    35    1
    37    16    36    1
    38    17    37    1
    39    18    38    1
