@<TRIPOS>MOLECULE
*****
 41 43 0 0 0
SMALL
GASTEIGER

@<TRIPOS>ATOM
      1 C           4.4914    2.0399    1.8685 C.3     1  UNL1       -0.0524
      2 C           3.2171    1.2639    1.5495 C.3     1  UNL1       -0.0039
      3 N           3.3099    0.5169    0.2819 N.3     1  UNL1       -0.3012
      4 C           4.1875   -0.6581    0.3966 C.3     1  UNL1       -0.0039
      5 C           4.4601   -1.3454   -0.9378 C.3     1  UNL1       -0.0524
      6 C           1.9628    0.2101   -0.2467 C.3     1  UNL1        0.0170
      7 C           1.0921   -0.7765    0.5651 C.3     1  UNL1        0.0412
      8 N          -0.2755   -0.8743    0.0215 N.ar    1  UNL1       -0.2869
      9 C          -0.6269   -1.8397   -0.9194 C.ar    1  UNL1        0.1611
     10 S           0.3592   -3.0347   -1.5626 S.2     1  UNL1       -0.0128
     11 N          -1.9179   -1.8228   -1.3731 N.ar    1  UNL1       -0.3345
     12 C          -2.8828   -0.9066   -0.9628 C.ar    1  UNL1        0.0572
     13 C          -4.1766   -0.9839   -1.4845 C.ar    1  UNL1        0.0080
     14 C          -5.0914   -0.0494   -1.0458 C.ar    1  UNL1        0.1682
     15 C          -4.7575    0.9252   -0.1332 C.ar    1  UNL1        0.1671
     16 C          -3.4885    1.0218    0.3942 C.ar    1  UNL1       -0.0018
     17 C          -2.5412    0.0829   -0.0349 C.ar    1  UNL1        0.0665
     18 C          -1.1596    0.1178    0.4764 C.ar    1  UNL1        0.2625
     19 O          -0.8447    1.0092    1.2626 O.2     1  UNL1       -0.2669
     20 O          -5.8051    1.7399    0.1601 O.3     1  UNL1       -0.4526
     21 C          -6.8381    1.1711   -0.6713 C.3     1  UNL1        0.2332
     22 O          -6.3906    0.0329   -1.4388 O.3     1  UNL1       -0.4525
     23 H           4.3252    2.6848    2.7380 H       1  UNL1        0.0242
     24 H           5.3281    1.3781    2.1093 H       1  UNL1        0.0242
     25 H           4.7841    2.6797    1.0294 H       1  UNL1        0.0242
     26 H           2.9691    0.6011    2.3873 H       1  UNL1        0.0424
     27 H           2.4113    2.0059    1.4810 H       1  UNL1        0.0424
     28 H           5.1651   -0.3490    0.7818 H       1  UNL1        0.0424
     29 H           3.7891   -1.3869    1.1123 H       1  UNL1        0.0424
     30 H           4.8259   -0.6308   -1.6826 H       1  UNL1        0.0242
     31 H           3.5686   -1.8375   -1.3352 H       1  UNL1        0.0242
     32 H           5.2276   -2.1160   -0.8091 H       1  UNL1        0.0242
     33 H           2.0561   -0.1542   -1.2768 H       1  UNL1        0.0444
     34 H           1.4201    1.1582   -0.3617 H       1  UNL1        0.0444
     35 H           1.5568   -1.7657    0.5930 H       1  UNL1        0.0506
     36 H           1.0234   -0.4470    1.6082 H       1  UNL1        0.0506
     37 H          -2.1624   -2.5358   -2.0527 H       1  UNL1        0.1678
     38 H          -4.4671   -1.7397   -2.2048 H       1  UNL1        0.0676
     39 H          -3.2382    1.7961    1.1119 H       1  UNL1        0.0664
     40 H          -7.1961    1.9419   -1.3634 H       1  UNL1        0.1166
     41 H          -7.6707    0.8570   -0.0314 H       1  UNL1        0.1166
@<TRIPOS>BOND
     1     1     2    1
     2     2     3    1
     3     3     4    1
     4     4     5    1
     5     3     6    1
     6     6     7    1
     7     7     8    1
     8     8     9   ar
     9     9    10    2
    10     9    11   ar
    11    11    12   ar
    12    12    13   ar
    13    13    14   ar
    14    14    15   ar
    15    15    16   ar
    16    16    17   ar
    17    17    18   ar
    18    18    19    2
    19    15    20    1
    20    20    21    1
    21    21    22    1
    22    18     8   ar
    23    17    12   ar
    24    22    14    1
    25     1    23    1
    26     1    24    1
    27     1    25    1
    28     2    26    1
    29     2    27    1
    30     4    28    1
    31     4    29    1
    32     5    30    1
    33     5    31    1
    34     5    32    1
    35     6    33    1
    36     6    34    1
    37     7    35    1
    38     7    36    1
    39    11    37    1
    40    13    38    1
    41    16    39    1
    42    21    40    1
    43    21    41    1
