@<TRIPOS>MOLECULE
*****
 42 42 0 0 0
SMALL
GASTEIGER

@<TRIPOS>ATOM
      1 C          -3.7610    1.3397   -1.4220 C.3     1  UNL1       -0.0524
      2 C          -3.8973   -0.1744   -1.3228 C.3     1  UNL1       -0.0038
      3 N          -3.5088   -0.8005   -0.0565 N.3     1  UNL1       -0.2996
      4 C          -4.3054   -0.3596    1.0890 C.3     1  UNL1       -0.0038
      5 C          -4.2101   -1.3110    2.2776 C.3     1  UNL1       -0.0524
      6 C          -2.0589   -0.9032    0.1636 C.3     1  UNL1        0.0331
      7 C          -1.3270    0.2816    0.8209 C.3     1  UNL1        0.1022
      8 O           0.0556   -0.0287    1.0281 O.3     1  UNL1       -0.4907
      9 C           0.9502    0.2453    0.0320 C.ar    1  UNL1        0.1208
     10 C           0.6480    0.6914   -1.2523 C.ar    1  UNL1       -0.0199
     11 C           1.6733    0.9246   -2.1719 C.ar    1  UNL1       -0.0580
     12 C           3.0047    0.7109   -1.8141 C.ar    1  UNL1       -0.0581
     13 C           3.3314    0.2575   -0.5302 C.ar    1  UNL1       -0.0413
     14 C           4.7838    0.0253   -0.1553 C.3     1  UNL1       -0.0214
     15 C           5.2229    0.9412    0.9899 C.3     1  UNL1       -0.0586
     16 C           5.0486   -1.4427    0.1881 C.3     1  UNL1       -0.0586
     17 C           2.2879    0.0278    0.3816 C.ar    1  UNL1       -0.0165
     18 H          -4.2940    1.8542   -0.6173 H       1  UNL1        0.0242
     19 H          -2.7159    1.6546   -1.4105 H       1  UNL1        0.0242
     20 H          -4.1892    1.6848   -2.3695 H       1  UNL1        0.0242
     21 H          -4.9456   -0.4333   -1.5215 H       1  UNL1        0.0424
     22 H          -3.3376   -0.6355   -2.1463 H       1  UNL1        0.0424
     23 H          -4.0329    0.6535    1.4056 H       1  UNL1        0.0424
     24 H          -5.3633   -0.3217    0.7994 H       1  UNL1        0.0424
     25 H          -3.2057   -1.3279    2.7109 H       1  UNL1        0.0242
     26 H          -4.4787   -2.3321    1.9869 H       1  UNL1        0.0242
     27 H          -4.9028   -0.9944    3.0644 H       1  UNL1        0.0242
     28 H          -1.8750   -1.7890    0.7867 H       1  UNL1        0.0460
     29 H          -1.5641   -1.1647   -0.7802 H       1  UNL1        0.0460
     30 H          -1.4511    1.2284    0.2897 H       1  UNL1        0.0709
     31 H          -1.7373    0.4501    1.8224 H       1  UNL1        0.0709
     32 H          -0.3713    0.8601   -1.5785 H       1  UNL1        0.0654
     33 H           1.4328    1.2719   -3.1736 H       1  UNL1        0.0619
     34 H           3.7849    0.8990   -2.5483 H       1  UNL1        0.0620
     35 H           5.4113    0.2712   -1.0223 H       1  UNL1        0.0343
     36 H           5.0449    1.9931    0.7401 H       1  UNL1        0.0235
     37 H           6.2931    0.8208    1.1901 H       1  UNL1        0.0235
     38 H           4.6847    0.7232    1.9188 H       1  UNL1        0.0235
     39 H           4.7459   -2.0983   -0.6361 H       1  UNL1        0.0235
     40 H           4.5032   -1.7592    1.0838 H       1  UNL1        0.0235
     41 H           6.1156   -1.6081    0.3732 H       1  UNL1        0.0235
     42 H           2.5100   -0.3259    1.3863 H       1  UNL1        0.0657
@<TRIPOS>BOND
     1     1     2    1
     2     2     3    1
     3     3     4    1
     4     4     5    1
     5     3     6    1
     6     6     7    1
     7     7     8    1
     8     8     9    1
     9     9    10   ar
    10    10    11   ar
    11    11    12   ar
    12    12    13   ar
    13    13    14    1
    14    14    15    1
    15    14    16    1
    16    13    17   ar
    17    17     9   ar
    18     1    18    1
    19     1    19    1
    20     1    20    1
    21     2    21    1
    22     2    22    1
    23     4    23    1
    24     4    24    1
    25     5    25    1
    26     5    26    1
    27     5    27    1
    28     6    28    1
    29     6    29    1
    30     7    30    1
    31     7    31    1
    32    10    32    1
    33    11    33    1
    34    12    34    1
    35    14    35    1
    36    15    36    1
    37    15    37    1
    38    15    38    1
    39    16    39    1
    40    16    40    1
    41    16    41    1
    42    17    42    1
