@<TRIPOS>MOLECULE
*****
 32 37 0 0 0
SMALL
GASTEIGER

@<TRIPOS>ATOM
      1 SI          4.6230    0.8769    0.2318 Si      1  UNL1        0.0000
      2 C           5.8377   -0.5505    0.2256 C.2     1  UNL1        0.0000
      3 C           5.1945   -1.7294    0.1651 C.2     1  UNL1        0.0000
      4 C           3.7404   -1.6463    0.1189 C.2     1  UNL1        0.0000
      5 C           3.2166   -0.3999    0.1424 C.2     1  UNL1        0.0000
      6 C           1.8329   -0.0512    0.1075 C.ar    1  UNL1        0.0000
      7 C           1.2346    1.2004    0.1321 C.ar    1  UNL1        0.0000
      8 C          -0.1725    1.1102    0.0805 C.ar    1  UNL1        0.0000
      9 C          -1.0407    2.2533    0.0920 C.ar    1  UNL1        0.0000
     10 N          -0.5752    3.4927    0.1527 N.ar    1  UNL1        0.0000
     11 S          -1.9733    4.4115    0.1380 S.2     1  UNL1        0.0000
     12 N          -3.1275    3.2041    0.0549 N.ar    1  UNL1        0.0000
     13 C          -2.4706    2.0231    0.0348 C.ar    1  UNL1        0.0000
     14 C          -3.0570    0.7231   -0.0321 C.ar    1  UNL1        0.0000
     15 C          -4.4755    0.5636   -0.0863 C.ar    1  UNL1        0.0000
     16 C          -5.1004   -0.6888   -0.1529 C.ar    1  UNL1        0.0000
     17 C          -4.2456   -1.8142   -0.1642 C.ar    1  UNL1        0.0000
     18 N          -4.6594   -3.0888   -0.2243 N.ar    1  UNL1        0.0000
     19 S          -3.2956   -4.0286   -0.2116 S.2     1  UNL1        0.0000
     20 N          -2.1223   -2.8654   -0.1296 N.ar    1  UNL1        0.0000
     21 C          -2.7346   -1.6681   -0.1073 C.ar    1  UNL1        0.0000
     22 C          -2.1268   -0.3752   -0.0399 C.ar    1  UNL1        0.0000
     23 C          -0.7211   -0.1559    0.0161 C.ar    1  UNL1        0.0000
     24 S           0.6012   -1.2704    0.0210 S.2     1  UNL1        0.0000
     25 H           4.7229    1.7068   -0.9952 H       1  UNL1        0.0000
     26 H           4.6384    1.6239    1.5148 H       1  UNL1        0.0000
     27 H           6.9039   -0.3933    0.2667 H       1  UNL1        0.0000
     28 H           5.6950   -2.6901    0.1503 H       1  UNL1        0.0000
     29 H           3.1670   -2.5645    0.0695 H       1  UNL1        0.0000
     30 H           1.7801    2.1353    0.1847 H       1  UNL1        0.0000
     31 H          -5.1120    1.4508   -0.0761 H       1  UNL1        0.0000
     32 H          -6.1781   -0.7951   -0.1935 H       1  UNL1        0.0000
@<TRIPOS>BOND
     1     1     2    1
     2     2     3    2
     3     3     4    1
     4     4     5    2
     5     5     6    1
     6     6     7   ar
     7     7     8   ar
     8     8     9   ar
     9     9    10   ar
    10    10    11   ar
    11    11    12   ar
    12    12    13   ar
    13    13    14   ar
    14    14    15   ar
    15    15    16   ar
    16    16    17   ar
    17    17    18   ar
    18    18    19   ar
    19    19    20   ar
    20    20    21   ar
    21    21    22   ar
    22    22    23   ar
    23    23    24   ar
    24     5     1    1
    25    24     6   ar
    26    23     8   ar
    27    13     9   ar
    28    22    14   ar
    29    21    17   ar
    30     1    25    1
    31     1    26    1
    32     2    27    1
    33     3    28    1
    34     4    29    1
    35     7    30    1
    36    15    31    1
    37    16    32    1
