@<TRIPOS>MOLECULE
*****
 33 33 0 0 0
SMALL
GASTEIGER

@<TRIPOS>ATOM
      1 C          -4.1433    0.6643    0.6125 C.3     1  UNL1       -0.0507
      2 C          -2.9508    1.5221    0.2212 C.3     1  UNL1        0.0177
      3 N          -1.7079    0.6965    0.1304 N.3     1  UNL1       -0.1771
      4 C          -1.6899   -0.2013   -1.0636 C.3     1  UNL1        0.0177
      5 C          -1.8224   -1.6486   -0.6194 C.3     1  UNL1       -0.0507
      6 S          -0.2841    1.6242    0.3732 S.O2    1  UNL1        0.0623
      7 O          -0.4181    2.4234    1.5706 O.2     1  UNL1       -0.1528
      8 O           0.0163    2.2585   -0.8959 O.2     1  UNL1       -0.1528
      9 C           0.9650    0.4049    0.6871 C.ar    1  UNL1        0.1272
     10 C           2.0421    0.3133   -0.2143 C.ar    1  UNL1        0.0093
     11 C           3.0605   -0.6211   -0.0091 C.ar    1  UNL1        0.1403
     12 O           4.1388   -0.7867   -0.8366 O.3     1  UNL1       -0.4936
     13 C           4.2909    0.1183   -1.9232 C.3     1  UNL1        0.0789
     14 C           2.9868   -1.4616    1.1123 C.ar    1  UNL1        0.0840
     15 CL          4.2036   -2.6489    1.4296 Cl      1  UNL1       -0.0797
     16 C           1.9219   -1.3638    2.0120 C.ar    1  UNL1       -0.0196
     17 C           0.9057   -0.4273    1.8059 C.ar    1  UNL1        0.0689
     18 CL         -0.3723   -0.4072    2.9651 Cl      1  UNL1       -0.0815
     19 H          -3.9403    0.1048    1.5317 H       1  UNL1        0.0243
     20 H          -5.0219    1.2947    0.7821 H       1  UNL1        0.0243
     21 H          -4.3985   -0.0536   -0.1726 H       1  UNL1        0.0243
     22 H          -2.8391    2.2916    0.9921 H       1  UNL1        0.0441
     23 H          -3.1384    2.0321   -0.7303 H       1  UNL1        0.0441
     24 H          -2.5014    0.0513   -1.7549 H       1  UNL1        0.0441
     25 H          -0.7619   -0.0927   -1.6341 H       1  UNL1        0.0441
     26 H          -0.9788   -1.9503    0.0079 H       1  UNL1        0.0243
     27 H          -2.7383   -1.8127   -0.0442 H       1  UNL1        0.0243
     28 H          -1.8458   -2.3101   -1.4911 H       1  UNL1        0.0243
     29 H           2.0663    0.9823   -1.0700 H       1  UNL1        0.0675
     30 H           4.3733    1.1513   -1.5696 H       1  UNL1        0.0660
     31 H           5.2228   -0.1326   -2.4390 H       1  UNL1        0.0660
     32 H           3.4725    0.0089   -2.6423 H       1  UNL1        0.0660
     33 H           1.8865   -2.0237    2.8765 H       1  UNL1        0.0648
@<TRIPOS>BOND
     1     1     2    1
     2     2     3    1
     3     3     4    1
     4     4     5    1
     5     3     6    1
     6     6     7    2
     7     6     8    2
     8     6     9    1
     9     9    10   ar
    10    10    11   ar
    11    11    12    1
    12    12    13    1
    13    11    14   ar
    14    14    15    1
    15    14    16   ar
    16    16    17   ar
    17    17    18    1
    18    17     9   ar
    19     1    19    1
    20     1    20    1
    21     1    21    1
    22     2    22    1
    23     2    23    1
    24     4    24    1
    25     4    25    1
    26     5    26    1
    27     5    27    1
    28     5    28    1
    29    10    29    1
    30    13    30    1
    31    13    31    1
    32    13    32    1
    33    16    33    1
