@<TRIPOS>MOLECULE
*****
 40 41 0 0 0
SMALL
GASTEIGER

@<TRIPOS>ATOM
      1 C          -3.2661    1.9160    1.2132 C.3     1  UNL1       -0.0507
      2 C          -3.2204    0.4237    1.5009 C.3     1  UNL1        0.0177
      3 N          -3.4918   -0.3380    0.2494 N.3     1  UNL1       -0.1771
      4 C          -4.9449   -0.4207   -0.0786 C.3     1  UNL1        0.0177
      5 C          -5.1707    0.1279   -1.4768 C.3     1  UNL1       -0.0507
      6 S          -2.6787   -1.8435    0.1269 S.O2    1  UNL1        0.0608
      7 O          -3.0337   -2.4535   -1.1367 O.2     1  UNL1       -0.1528
      8 O          -2.8725   -2.5389    1.3819 O.2     1  UNL1       -0.1528
      9 C          -0.9777   -1.3500    0.0012 C.ar    1  UNL1        0.1056
     10 C          -0.5686   -0.6134   -1.1109 C.ar    1  UNL1       -0.0336
     11 C           0.7679   -0.2210   -1.2207 C.ar    1  UNL1       -0.0386
     12 C           1.7011   -0.5609   -0.2288 C.ar    1  UNL1        0.0338
     13 N           3.0264   -0.1161   -0.4225 N.am    1  UNL1       -0.2811
     14 C           4.1342   -0.3487    0.3836 C.2     1  UNL1        0.2549
     15 O           4.1066   -1.0337    1.4019 O.2     1  UNL1       -0.2693
     16 C           5.3597    0.2930   -0.1003 C.ar    1  UNL1        0.0742
     17 C           5.5377    1.3511   -0.9780 C.ar    1  UNL1       -0.0425
     18 C           6.9133    1.6674   -1.1889 C.ar    1  UNL1       -0.0540
     19 C           7.7467    0.8504   -0.4616 C.ar    1  UNL1       -0.0236
     20 S           6.8761   -0.2819    0.4738 S.2     1  UNL1       -0.0921
     21 C           1.2727   -1.3032    0.8762 C.ar    1  UNL1       -0.0386
     22 C          -0.0635   -1.7039    0.9927 C.ar    1  UNL1       -0.0336
     23 H          -3.0227    2.4838    2.1166 H       1  UNL1        0.0243
     24 H          -2.5449    2.1856    0.4343 H       1  UNL1        0.0243
     25 H          -4.2580    2.2307    0.8741 H       1  UNL1        0.0243
     26 H          -3.9464    0.1574    2.2771 H       1  UNL1        0.0441
     27 H          -2.2268    0.1899    1.8946 H       1  UNL1        0.0441
     28 H          -5.5430    0.1566    0.6352 H       1  UNL1        0.0441
     29 H          -5.3076   -1.4524   -0.0125 H       1  UNL1        0.0441
     30 H          -4.6156   -0.4461   -2.2253 H       1  UNL1        0.0243
     31 H          -6.2334    0.0861   -1.7347 H       1  UNL1        0.0243
     32 H          -4.8427    1.1703   -1.5469 H       1  UNL1        0.0243
     33 H          -1.2822   -0.3483   -1.8881 H       1  UNL1        0.0638
     34 H           1.0666    0.3513   -2.0956 H       1  UNL1        0.0637
     35 H           3.1926    0.3888   -1.2804 H       1  UNL1        0.1551
     36 H           4.7302    1.9003   -1.4450 H       1  UNL1        0.0630
     37 H           7.2724    2.4595   -1.8351 H       1  UNL1        0.0623
     38 H           8.8276    0.8670   -0.4258 H       1  UNL1        0.0693
     39 H           1.9532   -1.5947    1.6707 H       1  UNL1        0.0637
     40 H          -0.3732   -2.2880    1.8568 H       1  UNL1        0.0638
@<TRIPOS>BOND
     1     1     2    1
     2     2     3    1
     3     3     4    1
     4     4     5    1
     5     3     6    1
     6     6     7    2
     7     6     8    2
     8     6     9    1
     9     9    10   ar
    10    10    11   ar
    11    11    12   ar
    12    12    13    1
    13    13    14   am
    14    14    15    2
    15    14    16    1
    16    16    17   ar
    17    17    18   ar
    18    18    19   ar
    19    19    20   ar
    20    12    21   ar
    21    21    22   ar
    22    22     9   ar
    23    20    16   ar
    24     1    23    1
    25     1    24    1
    26     1    25    1
    27     2    26    1
    28     2    27    1
    29     4    28    1
    30     4    29    1
    31     5    30    1
    32     5    31    1
    33     5    32    1
    34    10    33    1
    35    11    34    1
    36    13    35    1
    37    17    36    1
    38    18    37    1
    39    19    38    1
    40    21    39    1
    41    22    40    1
