@<TRIPOS>MOLECULE
*****
 43 44 0 0 0
SMALL
GASTEIGER

@<TRIPOS>ATOM
      1 C          -3.8073    0.3874   -2.3209 C.3     1  UNL1       -0.0507
      2 C          -2.6091   -0.2225   -1.6184 C.3     1  UNL1        0.0177
      3 N          -2.6733   -0.1350   -0.1417 N.3     1  UNL1       -0.1771
      4 C          -3.7733   -0.8777    0.5158 C.3     1  UNL1        0.0177
      5 C          -4.9681   -0.0116    0.8810 C.3     1  UNL1       -0.0507
      6 S          -2.0629    1.2449    0.6341 S.O2    1  UNL1        0.0614
      7 O          -2.0591    1.0121    2.0634 O.2     1  UNL1       -0.1528
      8 O          -2.7617    2.3866    0.0788 O.2     1  UNL1       -0.1528
      9 C          -0.3582    1.3153    0.0993 C.ar    1  UNL1        0.1132
     10 C           0.0224    2.4535   -0.6285 C.ar    1  UNL1       -0.0347
     11 C           1.3190    2.5690   -1.1005 C.ar    1  UNL1       -0.0593
     12 C           2.2345    1.5524   -0.8426 C.ar    1  UNL1       -0.0521
     13 C           1.8957    0.3977   -0.1014 C.ar    1  UNL1        0.0050
     14 C           2.8620   -0.6241    0.1480 C.ar    1  UNL1        0.0371
     15 N           4.1950   -0.4627   -0.3240 N.pl3   1  UNL1       -0.3355
     16 C           5.0674    0.0305    0.7466 C.3     1  UNL1        0.0004
     17 C           4.7212   -1.6219   -1.0458 C.3     1  UNL1        0.0004
     18 C           2.4927   -1.7577    0.8870 C.ar    1  UNL1       -0.0401
     19 C           1.2008   -1.8966    1.3717 C.ar    1  UNL1       -0.0594
     20 C           0.2566   -0.9020    1.1266 C.ar    1  UNL1       -0.0520
     21 C           0.5652    0.2670    0.3880 C.ar    1  UNL1        0.0102
     22 H          -3.9643    1.4299   -2.0321 H       1  UNL1        0.0243
     23 H          -4.7239   -0.1694   -2.1046 H       1  UNL1        0.0243
     24 H          -3.6581    0.3586   -3.4053 H       1  UNL1        0.0243
     25 H          -1.6956    0.2540   -1.9866 H       1  UNL1        0.0441
     26 H          -2.5182   -1.2794   -1.8970 H       1  UNL1        0.0441
     27 H          -3.3766   -1.3603    1.4164 H       1  UNL1        0.0441
     28 H          -4.1068   -1.6915   -0.1387 H       1  UNL1        0.0441
     29 H          -5.7783   -0.6393    1.2663 H       1  UNL1        0.0243
     30 H          -4.7209    0.7136    1.6618 H       1  UNL1        0.0243
     31 H          -5.3524    0.5439    0.0219 H       1  UNL1        0.0243
     32 H          -0.6869    3.2524   -0.8345 H       1  UNL1        0.0637
     33 H           1.6229    3.4439   -1.6691 H       1  UNL1        0.0618
     34 H           3.2462    1.6631   -1.2316 H       1  UNL1        0.0624
     35 H           4.6726    0.9523    1.1890 H       1  UNL1        0.0428
     36 H           5.1990   -0.7147    1.5398 H       1  UNL1        0.0428
     37 H           6.0559    0.2675    0.3378 H       1  UNL1        0.0428
     38 H           5.6431   -1.3386   -1.5656 H       1  UNL1        0.0428
     39 H           4.9606   -2.4560   -0.3772 H       1  UNL1        0.0428
     40 H           4.0138   -1.9652   -1.8093 H       1  UNL1        0.0428
     41 H           3.2175   -2.5345    1.1101 H       1  UNL1        0.0636
     42 H           0.9266   -2.7739    1.9516 H       1  UNL1        0.0618
     43 H          -0.7355   -1.0607    1.5420 H       1  UNL1        0.0624
@<TRIPOS>BOND
     1     1     2    1
     2     2     3    1
     3     3     4    1
     4     4     5    1
     5     3     6    1
     6     6     7    2
     7     6     8    2
     8     6     9    1
     9     9    10   ar
    10    10    11   ar
    11    11    12   ar
    12    12    13   ar
    13    13    14   ar
    14    14    15    1
    15    15    16    1
    16    15    17    1
    17    14    18   ar
    18    18    19   ar
    19    19    20   ar
    20    20    21   ar
    21    21     9   ar
    22    21    13   ar
    23     1    22    1
    24     1    23    1
    25     1    24    1
    26     2    25    1
    27     2    26    1
    28     4    27    1
    29     4    28    1
    30     5    29    1
    31     5    30    1
    32     5    31    1
    33    10    32    1
    34    11    33    1
    35    12    34    1
    36    16    35    1
    37    16    36    1
    38    16    37    1
    39    17    38    1
    40    17    39    1
    41    17    40    1
    42    18    41    1
    43    19    42    1
    44    20    43    1
