@<TRIPOS>MOLECULE
*****
 34 35 0 0 0
SMALL
GASTEIGER

@<TRIPOS>ATOM
      1 C          -2.5870   -2.0539    0.2938 C.3     1  UNL1       -0.0507
      2 C          -1.9173   -1.1012   -0.6843 C.3     1  UNL1        0.0177
      3 N          -1.8932    0.2776   -0.1109 N.3     1  UNL1       -0.1770
      4 C          -3.1996    0.9871   -0.2572 C.3     1  UNL1        0.0177
      5 C          -3.6599    1.4608    1.1105 C.3     1  UNL1       -0.0507
      6 S          -0.5453    1.2347   -0.6435 S.O2    1  UNL1        0.0629
      7 O          -0.6873    2.5442   -0.0396 O.2     1  UNL1       -0.1528
      8 O          -0.5134    1.0521   -2.0791 O.2     1  UNL1       -0.1528
      9 C           0.8285    0.4531    0.1559 C.ar    1  UNL1        0.1313
     10 C           0.6313   -0.0325    1.4625 C.ar    1  UNL1       -0.0332
     11 C           1.6673   -0.6692    2.1299 C.ar    1  UNL1       -0.0592
     12 C           2.8963   -0.8090    1.4964 C.ar    1  UNL1       -0.0525
     13 C           3.0978   -0.3015    0.2004 C.ar    1  UNL1        0.0023
     14 C           4.3492   -0.4310   -0.4183 C.ar    1  UNL1       -0.0511
     15 C           4.5549    0.0835   -1.6901 C.ar    1  UNL1       -0.0430
     16 C           3.4960    0.7164   -2.3019 C.ar    1  UNL1        0.0283
     17 N           2.2795    0.8558   -1.7335 N.ar    1  UNL1       -0.2530
     18 C           2.0559    0.3528   -0.5001 C.ar    1  UNL1        0.0972
     19 H          -2.5675   -3.0752   -0.0991 H       1  UNL1        0.0243
     20 H          -2.0717   -2.0490    1.2600 H       1  UNL1        0.0243
     21 H          -3.6318   -1.7809    0.4713 H       1  UNL1        0.0243
     22 H          -0.9001   -1.4645   -0.8629 H       1  UNL1        0.0441
     23 H          -2.4404   -1.1073   -1.6470 H       1  UNL1        0.0441
     24 H          -3.9613    0.3250   -0.6835 H       1  UNL1        0.0441
     25 H          -3.1177    1.8357   -0.9450 H       1  UNL1        0.0441
     26 H          -4.6220    1.9761    1.0307 H       1  UNL1        0.0243
     27 H          -2.9384    2.1526    1.5566 H       1  UNL1        0.0243
     28 H          -3.7800    0.6167    1.7977 H       1  UNL1        0.0243
     29 H          -0.3288    0.0939    1.9592 H       1  UNL1        0.0638
     30 H           1.5214   -1.0485    3.1381 H       1  UNL1        0.0618
     31 H           3.7066   -1.3069    2.0258 H       1  UNL1        0.0624
     32 H           5.1719   -0.9288    0.0894 H       1  UNL1        0.0625
     33 H           5.5145   -0.0034   -2.1861 H       1  UNL1        0.0633
     34 H           3.5914    1.1445   -3.2959 H       1  UNL1        0.0830
@<TRIPOS>BOND
     1     1     2    1
     2     2     3    1
     3     3     4    1
     4     4     5    1
     5     3     6    1
     6     6     7    2
     7     6     8    2
     8     6     9    1
     9     9    10   ar
    10    10    11   ar
    11    11    12   ar
    12    12    13   ar
    13    13    14   ar
    14    14    15   ar
    15    15    16   ar
    16    16    17   ar
    17    17    18   ar
    18    18     9   ar
    19    18    13   ar
    20     1    19    1
    21     1    20    1
    22     1    21    1
    23     2    22    1
    24     2    23    1
    25     4    24    1
    26     4    25    1
    27     5    26    1
    28     5    27    1
    29     5    28    1
    30    10    29    1
    31    11    30    1
    32    12    31    1
    33    14    32    1
    34    15    33    1
    35    16    34    1
