@<TRIPOS>MOLECULE
*****
 30 31 0 0 0
SMALL
GASTEIGER

@<TRIPOS>ATOM
      1 C           1.0508    2.5338    0.5735 C.3     1  UNL1       -0.0507
      2 C           1.4059    1.2338   -0.1311 C.3     1  UNL1        0.0177
      3 N           1.1305    0.0748    0.7650 N.3     1  UNL1       -0.1770
      4 C           2.2222   -0.2147    1.7411 C.3     1  UNL1        0.0177
      5 C           3.4168   -0.9360    1.1381 C.3     1  UNL1       -0.0507
      6 S           0.4556   -1.3091   -0.0032 S.O2    1  UNL1        0.0630
      7 O           1.2338   -1.5111   -1.2056 O.2     1  UNL1       -0.1528
      8 O           0.3029   -2.3410    1.0002 O.2     1  UNL1       -0.1528
      9 C          -1.1658   -0.7798   -0.4202 C.ar    1  UNL1        0.1335
     10 C          -1.8890    0.0561    0.4629 C.ar    1  UNL1       -0.0331
     11 C          -3.1984    0.5145    0.1936 C.ar    1  UNL1       -0.0577
     12 C          -3.9002    0.1695   -0.9725 C.ar    1  UNL1       -0.0334
     13 C          -3.2303   -0.6865   -1.8807 C.ar    1  UNL1        0.1018
     14 N          -3.7361   -1.1359   -3.0388 N.ar    1  UNL1       -0.1907
     15 S          -2.5738   -2.1095   -3.7125 S.2     1  UNL1        0.1165
     16 N          -1.3792   -1.9956   -2.5709 N.ar    1  UNL1       -0.1888
     17 C          -1.8274   -1.1829   -1.6013 C.ar    1  UNL1        0.1261
     18 H           1.2036    3.3823   -0.1010 H       1  UNL1        0.0243
     19 H           0.0036    2.5369    0.8921 H       1  UNL1        0.0243
     20 H           1.6701    2.6955    1.4607 H       1  UNL1        0.0243
     21 H           0.8022    1.1703   -1.0427 H       1  UNL1        0.0441
     22 H           2.4548    1.2475   -0.4418 H       1  UNL1        0.0441
     23 H           1.8065   -0.8024    2.5677 H       1  UNL1        0.0441
     24 H           2.5624    0.7251    2.1892 H       1  UNL1        0.0441
     25 H           3.8368   -0.3908    0.2882 H       1  UNL1        0.0243
     26 H           4.2051   -1.0420    1.8906 H       1  UNL1        0.0243
     27 H           3.1551   -1.9420    0.7976 H       1  UNL1        0.0243
     28 H          -1.4254    0.3571    1.4042 H       1  UNL1        0.0638
     29 H          -3.6877    1.1580    0.9259 H       1  UNL1        0.0619
     30 H          -4.9055    0.5240   -1.1683 H       1  UNL1        0.0640
@<TRIPOS>BOND
     1     1     2    1
     2     2     3    1
     3     3     4    1
     4     4     5    1
     5     3     6    1
     6     6     7    2
     7     6     8    2
     8     6     9    1
     9     9    10   ar
    10    10    11   ar
    11    11    12   ar
    12    12    13   ar
    13    13    14   ar
    14    14    15   ar
    15    15    16   ar
    16    16    17   ar
    17    17     9   ar
    18    17    13   ar
    19     1    18    1
    20     1    19    1
    21     1    20    1
    22     2    21    1
    23     2    22    1
    24     4    23    1
    25     4    24    1
    26     5    25    1
    27     5    26    1
    28     5    27    1
    29    10    28    1
    30    11    29    1
    31    12    30    1
