@<TRIPOS>MOLECULE
*****
 42 43 0 0 0
SMALL
GASTEIGER

@<TRIPOS>ATOM
      1 C          -2.2568   -4.1485    1.3223 C.3     1  UNL1       -0.0493
      2 C          -2.5179   -3.1538    0.2017 C.3     1  UNL1        0.0123
      3 N          -1.9577   -1.8362    0.4981 N.am    1  UNL1       -0.2946
      4 C          -2.7664   -0.9354    1.3223 C.3     1  UNL1        0.0398
      5 C          -3.3039    0.2598    0.5706 C.ar    1  UNL1       -0.0301
      6 C          -3.8482    0.1342   -0.7163 C.ar    1  UNL1       -0.0571
      7 C          -4.3590    1.2483   -1.3850 C.ar    1  UNL1       -0.0615
      8 C          -4.3418    2.4991   -0.7726 C.ar    1  UNL1       -0.0617
      9 C          -3.8178    2.6369    0.5104 C.ar    1  UNL1       -0.0615
     10 C          -3.3072    1.5239    1.1809 C.ar    1  UNL1       -0.0571
     11 C          -0.6276   -1.5907    0.1449 C.2     1  UNL1        0.2536
     12 O           0.0506   -2.4475   -0.4273 O.2     1  UNL1       -0.2719
     13 C          -0.0482   -0.2123    0.4929 C.3     1  UNL1        0.1686
     14 O           1.3254   -0.1038    0.1158 O.3     1  UNL1       -0.4506
     15 C           1.9079    1.0619    0.4875 C.2     1  UNL1        0.3597
     16 O           1.3606    1.9642    1.1062 O.2     1  UNL1       -0.2432
     17 C           3.3245    1.1164    0.0459 C.ar    1  UNL1        0.1656
     18 C           4.0692    2.2505    0.3338 C.ar    1  UNL1        0.0603
     19 N           5.3713    2.3837   -0.0317 N.ar    1  UNL1       -0.2563
     20 C           5.9068    1.3330   -0.7023 C.ar    1  UNL1        0.0563
     21 C           7.3375    1.4266   -1.1297 C.3     1  UNL1       -0.0209
     22 C           5.1539    0.1975   -0.9882 C.ar    1  UNL1        0.0495
     23 N           3.8571    0.0610   -0.6250 N.ar    1  UNL1       -0.2452
     24 H          -2.6844   -5.1240    1.0715 H       1  UNL1        0.0245
     25 H          -1.1831   -4.2788    1.4926 H       1  UNL1        0.0245
     26 H          -2.7044   -3.8107    2.2625 H       1  UNL1        0.0245
     27 H          -2.0799   -3.5356   -0.7274 H       1  UNL1        0.0462
     28 H          -3.5943   -3.0491    0.0260 H       1  UNL1        0.0462
     29 H          -3.6137   -1.4879    1.7460 H       1  UNL1        0.0514
     30 H          -2.1513   -0.6107    2.1684 H       1  UNL1        0.0514
     31 H          -3.8721   -0.8322   -1.2145 H       1  UNL1        0.0621
     32 H          -4.7695    1.1391   -2.3857 H       1  UNL1        0.0618
     33 H          -4.7377    3.3662   -1.2949 H       1  UNL1        0.0618
     34 H          -3.8057    3.6126    0.9897 H       1  UNL1        0.0618
     35 H          -2.9046    1.6561    2.1833 H       1  UNL1        0.0621
     36 H          -0.6151    0.5475   -0.0530 H       1  UNL1        0.0796
     37 H          -0.1287   -0.0664    1.5747 H       1  UNL1        0.0796
     38 H           3.6456    3.0940    0.8692 H       1  UNL1        0.0854
     39 H           7.4130    1.3508   -2.2189 H       1  UNL1        0.0293
     40 H           7.7734    2.3830   -0.8236 H       1  UNL1        0.0293
     41 H           7.9228    0.6232   -0.6719 H       1  UNL1        0.0293
     42 H           5.5774   -0.6459   -1.5244 H       1  UNL1        0.0848
@<TRIPOS>BOND
     1     1     2    1
     2     2     3    1
     3     3     4    1
     4     4     5    1
     5     5     6   ar
     6     6     7   ar
     7     7     8   ar
     8     8     9   ar
     9     9    10   ar
    10     3    11   am
    11    11    12    2
    12    11    13    1
    13    13    14    1
    14    14    15    1
    15    15    16    2
    16    15    17    1
    17    17    18   ar
    18    18    19   ar
    19    19    20   ar
    20    20    21    1
    21    20    22   ar
    22    22    23   ar
    23    10     5   ar
    24    23    17   ar
    25     1    24    1
    26     1    25    1
    27     1    26    1
    28     2    27    1
    29     2    28    1
    30     4    29    1
    31     4    30    1
    32     6    31    1
    33     7    32    1
    34     8    33    1
    35     9    34    1
    36    10    35    1
    37    13    36    1
    38    13    37    1
    39    18    38    1
    40    21    39    1
    41    21    40    1
    42    21    41    1
    43    22    42    1
