@<TRIPOS>MOLECULE
*****
 28 29 0 0 0
SMALL
GASTEIGER

@<TRIPOS>ATOM
      1 C          -4.2959   -1.0304   -0.1874 C.3     1  UNL1       -0.0488
      2 C          -3.6827    0.3477    0.0103 C.3     1  UNL1        0.0189
      3 N          -2.2281    0.3079   -0.0832 N.am    1  UNL1       -0.2484
      4 C          -1.4531    0.0272    1.0174 C.2     1  UNL1        0.2665
      5 O          -1.8115   -0.1917    2.1614 O.2     1  UNL1       -0.2682
      6 C          -0.0425    0.0394    0.5211 C.2     1  UNL1        0.0992
      7 C           0.9575   -0.1803    1.3846 C.2     1  UNL1       -0.0215
      8 C           2.3395   -0.1606    1.0706 C.ar    1  UNL1        0.0141
      9 C           3.1719    0.9185    0.8325 C.ar    1  UNL1       -0.0475
     10 C           4.5194    0.5306    0.5779 C.ar    1  UNL1       -0.0542
     11 C           4.6837   -0.8334    0.6536 C.ar    1  UNL1       -0.0238
     12 S           3.2246   -1.6349    1.0398 S.2     1  UNL1       -0.0972
     13 N          -0.0949    0.2882   -0.8385 N.am    1  UNL1       -0.2811
     14 C           1.0540    0.3273   -1.7252 C.3     1  UNL1        0.0075
     15 C          -1.4453    0.4569   -1.2250 C.2     1  UNL1        0.1463
     16 S          -2.0063    0.7814   -2.7646 S.2     1  UNL1       -0.0177
     17 H          -3.9307   -1.7349    0.5671 H       1  UNL1        0.0245
     18 H          -4.0466   -1.4391   -1.1717 H       1  UNL1        0.0245
     19 H          -5.3858   -0.9765   -0.1053 H       1  UNL1        0.0245
     20 H          -3.9585    0.7243    1.0019 H       1  UNL1        0.0466
     21 H          -4.0838    1.0448   -0.7313 H       1  UNL1        0.0466
     22 H           0.7122   -0.3913    2.4252 H       1  UNL1        0.0649
     23 H           2.8273    1.9462    0.8375 H       1  UNL1        0.0629
     24 H           5.3279    1.2179    0.3601 H       1  UNL1        0.0623
     25 H           5.5938   -1.4004    0.5131 H       1  UNL1        0.0693
     26 H           1.6462    1.2182   -1.5027 H       1  UNL1        0.0432
     27 H           0.7580    0.3773   -2.7748 H       1  UNL1        0.0432
     28 H           1.6497   -0.5801   -1.5983 H       1  UNL1        0.0432
@<TRIPOS>BOND
     1     1     2    1
     2     2     3    1
     3     3     4   am
     4     4     5    2
     5     4     6    1
     6     6     7    2
     7     7     8    1
     8     8     9   ar
     9     9    10   ar
    10    10    11   ar
    11    11    12   ar
    12     6    13    1
    13    13    14    1
    14    13    15    1
    15    15    16    2
    16    15     3    1
    17    12     8   ar
    18     1    17    1
    19     1    18    1
    20     1    19    1
    21     2    20    1
    22     2    21    1
    23     7    22    1
    24     9    23    1
    25    10    24    1
    26    11    25    1
    27    14    26    1
    28    14    27    1
    29    14    28    1
