@<TRIPOS>MOLECULE
*****
 32 33 0 0 0
SMALL
GASTEIGER

@<TRIPOS>ATOM
      1 C          -2.8370    2.2690   -1.1855 C.3     1  UNL1       -0.0489
      2 C          -2.4729    1.8491    0.2295 C.3     1  UNL1        0.0173
      3 N          -1.4426    0.8371    0.2472 N.am    1  UNL1       -0.2671
      4 C          -0.0761    1.1305    0.2982 C.2     1  UNL1        0.2527
      5 O           0.4183    2.2404    0.3742 O.2     1  UNL1       -0.2696
      6 C           0.6177   -0.2103    0.2285 C.2     1  UNL1        0.0597
      7 C           1.9259   -0.5147    0.2582 C.2     1  UNL1        0.0044
      8 N           3.1119    0.2056    0.3656 N.pl3   1  UNL1       -0.3412
      9 C           4.4082   -0.4736    0.4170 C.3     1  UNL1       -0.0001
     10 C           3.1666    1.6377    0.6547 C.3     1  UNL1       -0.0001
     11 C          -0.4449   -1.2261    0.1036 C.ar    1  UNL1        0.0097
     12 C          -0.4154   -2.6083   -0.0177 C.ar    1  UNL1       -0.0520
     13 C          -1.6289   -3.2941   -0.1306 C.ar    1  UNL1       -0.0611
     14 C          -2.8483   -2.5992   -0.1231 C.ar    1  UNL1       -0.0600
     15 C          -2.8741   -1.2079   -0.0009 C.ar    1  UNL1       -0.0397
     16 C          -1.6647   -0.5416    0.1131 C.ar    1  UNL1        0.0444
     17 H          -3.6021    3.0510   -1.1651 H       1  UNL1        0.0245
     18 H          -1.9623    2.6590   -1.7166 H       1  UNL1        0.0245
     19 H          -3.2274    1.4242   -1.7620 H       1  UNL1        0.0245
     20 H          -3.3550    1.4865    0.7676 H       1  UNL1        0.0466
     21 H          -2.1045    2.7267    0.7733 H       1  UNL1        0.0466
     22 H           2.1735   -1.5719    0.1784 H       1  UNL1        0.0788
     23 H           4.6922   -0.6615    1.4575 H       1  UNL1        0.0427
     24 H           4.3835   -1.4314   -0.1146 H       1  UNL1        0.0427
     25 H           5.1879    0.1334   -0.0561 H       1  UNL1        0.0427
     26 H           2.5911    1.8743    1.5550 H       1  UNL1        0.0427
     27 H           4.1933    1.9730    0.8426 H       1  UNL1        0.0427
     28 H           2.7989    2.2123   -0.2003 H       1  UNL1        0.0427
     29 H           0.5185   -3.1595   -0.0289 H       1  UNL1        0.0624
     30 H          -1.6287   -4.3778   -0.2273 H       1  UNL1        0.0618
     31 H          -3.7816   -3.1507   -0.2139 H       1  UNL1        0.0618
     32 H          -3.8212   -0.6814    0.0022 H       1  UNL1        0.0636
@<TRIPOS>BOND
     1     1     2    1
     2     2     3    1
     3     3     4   am
     4     4     5    2
     5     4     6    1
     6     6     7    2
     7     7     8    1
     8     8     9    1
     9     8    10    1
    10     6    11    1
    11    11    12   ar
    12    12    13   ar
    13    13    14   ar
    14    14    15   ar
    15    15    16   ar
    16    16     3    1
    17    16    11   ar
    18     1    17    1
    19     1    18    1
    20     1    19    1
    21     2    20    1
    22     2    21    1
    23     7    22    1
    24     9    23    1
    25     9    24    1
    26     9    25    1
    27    10    26    1
    28    10    27    1
    29    10    28    1
    30    12    29    1
    31    13    30    1
    32    14    31    1
    33    15    32    1
