@<TRIPOS>MOLECULE
*****
 42 44 0 0 0
SMALL
GASTEIGER

@<TRIPOS>ATOM
      1 C           4.8781    2.0809    0.5173 C.3     1  UNL1       -0.0470
      2 C           4.1509    1.4808   -0.6776 C.3     1  UNL1        0.0239
      3 N           2.9777    0.7058   -0.2795 N.ar    1  UNL1       -0.3082
      4 C           1.7647    1.3780   -0.2250 C.ar    1  UNL1        0.2552
      5 O           1.6214    2.5758   -0.4693 O.2     1  UNL1       -0.2676
      6 C           0.5661    0.6050    0.1596 C.ar    1  UNL1        0.0453
      7 C           0.6217   -0.6898    0.4965 C.ar    1  UNL1        0.1354
      8 O          -0.4418   -1.4805    0.8796 O.3     1  UNL1       -0.4819
      9 C          -1.7418   -0.9130    0.9490 C.3     1  UNL1        0.1654
     10 C          -2.4476   -0.6862   -0.3979 C.2     1  UNL1        0.2532
     11 O          -2.0016   -1.1271   -1.4572 O.2     1  UNL1       -0.2719
     12 N          -3.6175    0.0464   -0.3557 N.am    1  UNL1       -0.2987
     13 C          -4.2761    0.5898    0.8214 C.3     1  UNL1        0.0148
     14 C          -5.6490    1.0170    0.3215 C.3     1  UNL1       -0.0357
     15 C          -5.3821    1.3904   -1.1316 C.3     1  UNL1       -0.0357
     16 C          -4.3599    0.3505   -1.5669 C.3     1  UNL1        0.0148
     17 C           1.9281   -1.3754    0.4759 C.ar    1  UNL1        0.0404
     18 C           2.0316   -2.7327    0.8346 C.ar    1  UNL1       -0.0491
     19 C           3.2614   -3.3879    0.8268 C.ar    1  UNL1       -0.0610
     20 C           4.4059   -2.6935    0.4611 C.ar    1  UNL1       -0.0598
     21 C           4.3203   -1.3469    0.0984 C.ar    1  UNL1       -0.0374
     22 C           3.0875   -0.6710    0.0947 C.ar    1  UNL1        0.0555
     23 H           4.2157    2.7391    1.0892 H       1  UNL1        0.0247
     24 H           5.7369    2.6700    0.1813 H       1  UNL1        0.0247
     25 H           5.2427    1.3049    1.1974 H       1  UNL1        0.0247
     26 H           3.8333    2.3012   -1.3330 H       1  UNL1        0.0490
     27 H           4.8222    0.8728   -1.2919 H       1  UNL1        0.0490
     28 H          -0.3469    1.1827    0.1400 H       1  UNL1        0.0709
     29 H          -1.7219    0.0080    1.5423 H       1  UNL1        0.0795
     30 H          -2.3583   -1.6321    1.5010 H       1  UNL1        0.0795
     31 H          -3.6920    1.4500    1.1659 H       1  UNL1        0.0464
     32 H          -4.3303   -0.1530    1.6218 H       1  UNL1        0.0464
     33 H          -6.3441    0.1697    0.3635 H       1  UNL1        0.0281
     34 H          -6.0734    1.8387    0.9047 H       1  UNL1        0.0281
     35 H          -4.9417    2.3936   -1.1804 H       1  UNL1        0.0281
     36 H          -6.2838    1.3804   -1.7497 H       1  UNL1        0.0281
     37 H          -3.6943    0.7123   -2.3563 H       1  UNL1        0.0464
     38 H          -4.8453   -0.5720   -1.9041 H       1  UNL1        0.0464
     39 H           1.1463   -3.2963    1.1217 H       1  UNL1        0.0625
     40 H           3.3209   -4.4367    1.1051 H       1  UNL1        0.0618
     41 H           5.3692   -3.1975    0.4550 H       1  UNL1        0.0618
     42 H           5.2467   -0.8521   -0.1725 H       1  UNL1        0.0638
@<TRIPOS>BOND
     1     1     2    1
     2     2     3    1
     3     3     4   ar
     4     4     5    2
     5     4     6   ar
     6     6     7   ar
     7     7     8    1
     8     8     9    1
     9     9    10    1
    10    10    11    2
    11    10    12   am
    12    12    13    1
    13    13    14    1
    14    14    15    1
    15    15    16    1
    16     7    17   ar
    17    17    18   ar
    18    18    19   ar
    19    19    20   ar
    20    20    21   ar
    21    21    22   ar
    22    22     3   ar
    23    16    12    1
    24    22    17   ar
    25     1    23    1
    26     1    24    1
    27     1    25    1
    28     2    26    1
    29     2    27    1
    30     6    28    1
    31     9    29    1
    32     9    30    1
    33    13    31    1
    34    13    32    1
    35    14    33    1
    36    14    34    1
    37    15    35    1
    38    15    36    1
    39    16    37    1
    40    16    38    1
    41    18    39    1
    42    19    40    1
    43    20    41    1
    44    21    42    1
