@<TRIPOS>MOLECULE
*****
 38 40 0 0 0
SMALL
GASTEIGER

@<TRIPOS>ATOM
      1 C          -1.9334   -2.4126    1.9911 C.3     1  UNL1       -0.0470
      2 C          -0.8703   -1.3383    1.8402 C.3     1  UNL1        0.0221
      3 N          -0.6124   -1.0162    0.4483 N.ar    1  UNL1       -0.3271
      4 C           0.3254   -1.5989   -0.3818 C.ar    1  UNL1        0.1211
      5 C           1.2803   -2.6757    0.0332 C.3     1  UNL1        0.0593
      6 S           3.0056   -2.1016    0.0014 S.3     1  UNL1       -0.0799
      7 C           2.9058   -0.7935    1.1270 C.ar    1  UNL1        0.1691
      8 N           2.5607   -0.9084    2.3895 N.ar    1  UNL1       -0.2303
      9 C           2.6121    0.3677    2.8895 C.ar    1  UNL1        0.0466
     10 C           2.9614    1.2661    1.9082 C.ar    1  UNL1        0.0247
     11 N           3.1440    0.5089    0.7805 N.ar    1  UNL1       -0.3286
     12 C           3.4896    1.0197   -0.5237 C.3     1  UNL1        0.0137
     13 N           0.2671   -1.0647   -1.5897 N.ar    1  UNL1       -0.2314
     14 C          -0.7129   -0.1110   -1.5394 C.ar    1  UNL1        0.0901
     15 C          -1.1648    0.7481   -2.5501 C.ar    1  UNL1       -0.0203
     16 C          -2.1958    1.6520   -2.2538 C.ar    1  UNL1        0.0610
     17 C          -2.6543    2.5530   -3.3384 C.2     1  UNL1        0.3369
     18 O          -2.2014    2.6031   -4.4667 O.2     1  UNL1       -0.2451
     19 O          -3.6650    3.3558   -2.9596 O.3     1  UNL1       -0.4771
     20 C          -2.7614    1.6915   -0.9715 C.ar    1  UNL1       -0.0457
     21 C          -2.3175    0.8372    0.0460 C.ar    1  UNL1       -0.0353
     22 C          -1.2855   -0.0532   -0.2743 C.ar    1  UNL1        0.0689
     23 H          -2.1057   -2.6301    3.0497 H       1  UNL1        0.0247
     24 H          -1.6299   -3.3415    1.4970 H       1  UNL1        0.0247
     25 H          -2.8836   -2.0950    1.5493 H       1  UNL1        0.0247
     26 H           0.0618   -1.6574    2.3097 H       1  UNL1        0.0489
     27 H          -1.1784   -0.4190    2.3495 H       1  UNL1        0.0489
     28 H           1.0547   -3.0914    1.0182 H       1  UNL1        0.0460
     29 H           1.1975   -3.5039   -0.6792 H       1  UNL1        0.0460
     30 H           2.3899    0.5748    3.9283 H       1  UNL1        0.0845
     31 H           3.0911    2.3392    1.9195 H       1  UNL1        0.0825
     32 H           3.6117    2.1047   -0.4675 H       1  UNL1        0.0456
     33 H           4.4306    0.5640   -0.8416 H       1  UNL1        0.0456
     34 H           2.6832    0.7804   -1.2211 H       1  UNL1        0.0456
     35 H          -0.7169    0.7004   -3.5374 H       1  UNL1        0.0647
     36 H          -3.8592    3.8780   -3.7662 H       1  UNL1        0.2954
     37 H          -3.5620    2.3942   -0.7473 H       1  UNL1        0.0626
     38 H          -2.7621    0.8734    1.0348 H       1  UNL1        0.0639
@<TRIPOS>BOND
     1     1     2    1
     2     2     3    1
     3     3     4   ar
     4     4     5    1
     5     5     6    1
     6     6     7    1
     7     7     8   ar
     8     8     9   ar
     9     9    10   ar
    10    10    11   ar
    11    11    12    1
    12     4    13   ar
    13    13    14   ar
    14    14    15   ar
    15    15    16   ar
    16    16    17    1
    17    17    18    2
    18    17    19    1
    19    16    20   ar
    20    20    21   ar
    21    21    22   ar
    22    22     3   ar
    23    11     7   ar
    24    22    14   ar
    25     1    23    1
    26     1    24    1
    27     1    25    1
    28     2    26    1
    29     2    27    1
    30     5    28    1
    31     5    29    1
    32     9    30    1
    33    10    31    1
    34    12    32    1
    35    12    33    1
    36    12    34    1
    37    15    35    1
    38    19    36    1
    39    20    37    1
    40    21    38    1
