@<TRIPOS>MOLECULE
*****
 41 46 0 0 0
SMALL
GASTEIGER

@<TRIPOS>ATOM
      1 SI         -4.6307    0.2189   -1.3399 Si      1  UNL1        0.0000
      2 C          -5.9369    1.4285   -0.7157 C.2     1  UNL1        0.0000
      3 C          -5.4794    2.1540    0.3214 C.2     1  UNL1        0.0000
      4 C          -4.1139    1.8623    0.7294 C.2     1  UNL1        0.0000
      5 C          -3.4983    0.8992    0.0137 C.2     1  UNL1        0.0000
      6 C          -2.1292    0.4125    0.1923 C.ar    1  UNL1        0.0000
      7 C          -1.1300    1.0671   -0.5373 C.ar    1  UNL1        0.0000
      8 C           0.2090    0.6883   -0.4503 C.ar    1  UNL1        0.0000
      9 C           1.1485    1.3929   -1.2255 C.ar    1  UNL1        0.0000
     10 C           2.4790    1.0053   -1.1349 C.ar    1  UNL1        0.0000
     11 O           3.5192    1.5794   -1.8182 O.2     1  UNL1        0.0000
     12 C           4.6477    0.9087   -1.4476 C.ar    1  UNL1        0.0000
     13 C           6.0033    1.0792   -1.8413 C.2     1  UNL1        0.0000
     14 C           6.8128    0.1901   -1.2247 C.2     1  UNL1        0.0000
     15 SI          5.8277   -0.9728   -0.0457 Si      1  UNL1        0.0000
     16 C           4.2892   -0.0712   -0.5403 C.ar    1  UNL1        0.0000
     17 C           2.9185   -0.0341   -0.3222 C.ar    1  UNL1        0.0000
     18 C           1.9674   -0.7273    0.4476 C.ar    1  UNL1        0.0000
     19 C           0.5847   -0.3828    0.4039 C.ar    1  UNL1        0.0000
     20 C          -0.4319   -1.0553    1.1750 C.ar    1  UNL1        0.0000
     21 C          -0.1491   -2.1294    2.0604 C.ar    1  UNL1        0.0000
     22 C          -1.1364   -2.7721    2.8106 C.ar    1  UNL1        0.0000
     23 C          -2.4513   -2.3612    2.7051 C.ar    1  UNL1        0.0000
     24 C          -2.7716   -1.3127    1.8468 C.ar    1  UNL1        0.0000
     25 C          -1.7918   -0.6461    1.0688 C.ar    1  UNL1        0.0000
     26 H          -5.0387   -1.1890   -1.1060 H       1  UNL1        0.0000
     27 H          -4.1723    0.5651   -2.7088 H       1  UNL1        0.0000
     28 H          -6.9122    1.4877   -1.1720 H       1  UNL1        0.0000
     29 H          -6.0630    2.9090    0.8339 H       1  UNL1        0.0000
     30 H          -3.6528    2.3972    1.5512 H       1  UNL1        0.0000
     31 H          -1.4125    1.8937   -1.1897 H       1  UNL1        0.0000
     32 H           0.8666    2.2117   -1.8779 H       1  UNL1        0.0000
     33 H           6.3171    1.8350   -2.5479 H       1  UNL1        0.0000
     34 H           7.8807    0.0857   -1.3295 H       1  UNL1        0.0000
     35 H           5.9058   -2.3775   -0.5180 H       1  UNL1        0.0000
     36 H           6.2486   -0.7622    1.3617 H       1  UNL1        0.0000
     37 H           2.3265   -1.5333    1.0761 H       1  UNL1        0.0000
     38 H           0.8653   -2.4949    2.1901 H       1  UNL1        0.0000
     39 H          -0.8698   -3.5888    3.4761 H       1  UNL1        0.0000
     40 H          -3.2294   -2.8483    3.2861 H       1  UNL1        0.0000
     41 H          -3.8164   -1.0120    1.7959 H       1  UNL1        0.0000
@<TRIPOS>BOND
     1     1     2    1
     2     2     3    2
     3     3     4    1
     4     4     5    2
     5     5     6    1
     6     6     7   ar
     7     7     8   ar
     8     8     9   ar
     9     9    10   ar
    10    10    11   ar
    11    11    12   ar
    12    12    13    1
    13    13    14    2
    14    14    15    1
    15    15    16    1
    16    16    17   ar
    17    17    18   ar
    18    18    19   ar
    19    19    20   ar
    20    20    21   ar
    21    21    22   ar
    22    22    23   ar
    23    23    24   ar
    24    24    25   ar
    25     5     1    1
    26    25     6   ar
    27    19     8   ar
    28    25    20   ar
    29    17    10   ar
    30    16    12   ar
    31     1    26    1
    32     1    27    1
    33     2    28    1
    34     3    29    1
    35     4    30    1
    36     7    31    1
    37     9    32    1
    38    13    33    1
    39    14    34    1
    40    15    35    1
    41    15    36    1
    42    18    37    1
    43    21    38    1
    44    22    39    1
    45    23    40    1
    46    24    41    1
