@<TRIPOS>MOLECULE
*****
 37 39 0 0 0
SMALL
GASTEIGER

@<TRIPOS>ATOM
      1 C          -2.9489   -2.9067   -0.7607 C.3     1  UNL1       -0.0470
      2 C          -2.0719   -1.6818   -0.9555 C.3     1  UNL1        0.0243
      3 N          -1.3467   -1.3251    0.2444 N.ar    1  UNL1       -0.3019
      4 C          -0.0976   -1.7334    0.6214 C.ar    1  UNL1        0.1923
      5 S           0.9213   -2.7635   -0.3205 S.3     1  UNL1       -0.0780
      6 C           2.3830   -1.6846   -0.4273 C.3     1  UNL1        0.0642
      7 C           2.0905   -0.4000   -1.1916 C.2     1  UNL1        0.1733
      8 O           1.1041   -0.2489   -1.9146 O.2     1  UNL1       -0.2912
      9 C           3.0709    0.7240   -1.0779 C.ar    1  UNL1        0.0182
     10 C           2.7082    1.9783   -1.5895 C.ar    1  UNL1       -0.0512
     11 C           3.5900    3.0578   -1.5107 C.ar    1  UNL1       -0.0611
     12 C           4.8419    2.8915   -0.9231 C.ar    1  UNL1       -0.0617
     13 C           5.2142    1.6473   -0.4168 C.ar    1  UNL1       -0.0611
     14 C           4.3341    0.5637   -0.4935 C.ar    1  UNL1       -0.0512
     15 N           0.2296   -1.1913    1.7702 N.ar    1  UNL1       -0.1221
     16 N          -0.8336   -0.4211    2.1791 N.ar    1  UNL1       -0.1278
     17 C          -1.7719   -0.4942    1.2550 C.ar    1  UNL1        0.1715
     18 C          -3.0237    0.1919    1.3209 C.ar    1  UNL1        0.0564
     19 C          -3.4735    1.2043    0.4963 C.ar    1  UNL1       -0.0439
     20 C          -4.7790    1.6539    0.8538 C.ar    1  UNL1       -0.0540
     21 C          -5.2750    0.9764    1.9452 C.ar    1  UNL1       -0.0236
     22 S          -4.1691   -0.1887    2.5339 S.2     1  UNL1       -0.0935
     23 H          -2.3537   -3.7803   -0.4757 H       1  UNL1        0.0247
     24 H          -3.6942   -2.7408    0.0240 H       1  UNL1        0.0247
     25 H          -3.4793   -3.1440   -1.6880 H       1  UNL1        0.0247
     26 H          -1.3550   -1.8499   -1.7648 H       1  UNL1        0.0490
     27 H          -2.6794   -0.8260   -1.2628 H       1  UNL1        0.0490
     28 H           2.7199   -1.4587    0.5886 H       1  UNL1        0.0462
     29 H           3.1688   -2.2317   -0.9565 H       1  UNL1        0.0462
     30 H           1.7328    2.1232   -2.0506 H       1  UNL1        0.0625
     31 H           3.2976    4.0272   -1.9068 H       1  UNL1        0.0618
     32 H           5.5283    3.7324   -0.8600 H       1  UNL1        0.0618
     33 H           6.1935    1.5212    0.0394 H       1  UNL1        0.0618
     34 H           4.6664   -0.3897   -0.0944 H       1  UNL1        0.0625
     35 H          -2.8915    1.6134   -0.3214 H       1  UNL1        0.0630
     36 H          -5.3215    2.4403    0.3431 H       1  UNL1        0.0623
     37 H          -6.2298    1.1134    2.4344 H       1  UNL1        0.0693
@<TRIPOS>BOND
     1     1     2    1
     2     2     3    1
     3     3     4   ar
     4     4     5    1
     5     5     6    1
     6     6     7    1
     7     7     8    2
     8     7     9    1
     9     9    10   ar
    10    10    11   ar
    11    11    12   ar
    12    12    13   ar
    13    13    14   ar
    14     4    15   ar
    15    15    16   ar
    16    16    17   ar
    17    17    18    1
    18    18    19   ar
    19    19    20   ar
    20    20    21   ar
    21    21    22   ar
    22    17     3   ar
    23    22    18   ar
    24    14     9   ar
    25     1    23    1
    26     1    24    1
    27     1    25    1
    28     2    26    1
    29     2    27    1
    30     6    28    1
    31     6    29    1
    32    10    30    1
    33    11    31    1
    34    12    32    1
    35    13    33    1
    36    14    34    1
    37    19    35    1
    38    20    36    1
    39    21    37    1
