@<TRIPOS>MOLECULE
*****
 31 32 0 0 0
SMALL
GASTEIGER

@<TRIPOS>ATOM
      1 C          -3.8786   -3.6867   -0.3411 C.3     1  UNL1       -0.0455
      2 C          -4.1940   -2.2214   -0.5817 C.3     1  UNL1        0.0387
      3 N          -3.1400   -1.3488   -0.1006 N.ar    1  UNL1       -0.2710
      4 C          -3.1031   -0.6929    1.0930 C.ar    1  UNL1        0.0262
      5 C          -1.9329    0.0278    1.0872 C.ar    1  UNL1       -0.0117
      6 C          -1.3096   -0.2579   -0.1635 C.ar    1  UNL1        0.1473
      7 C          -0.0270    0.2655   -0.6850 C.2     1  UNL1        0.2681
      8 O           0.2440    0.2912   -1.8810 O.2     1  UNL1       -0.2681
      9 N           0.8624    0.6469    0.3163 N.am    1  UNL1       -0.2829
     10 C           2.0947    1.2378    0.1655 C.2     1  UNL1        0.0241
     11 C           2.5884    2.0234   -0.8058 C.2     1  UNL1        0.0463
     12 C           1.9127    2.5734   -1.9269 C.1     1  UNL1        0.0963
     13 N           1.4265    3.1278   -2.8231 N.1     1  UNL1       -0.1911
     14 C           3.9989    2.4398   -0.5012 C.3     1  UNL1       -0.0160
     15 C           4.4018    1.4963    0.6258 C.3     1  UNL1       -0.0432
     16 C           3.0941    1.0624    1.2760 C.3     1  UNL1       -0.0132
     17 N          -2.0667   -1.1165   -0.8714 N.ar    1  UNL1       -0.1666
     18 H          -4.6950   -4.3165   -0.7077 H       1  UNL1        0.0247
     19 H          -3.7418   -3.8902    0.7263 H       1  UNL1        0.0247
     20 H          -2.9597   -3.9838   -0.8577 H       1  UNL1        0.0247
     21 H          -5.1199   -1.9399   -0.0685 H       1  UNL1        0.0506
     22 H          -4.3283   -2.0213   -1.6505 H       1  UNL1        0.0506
     23 H          -3.8983   -0.7790    1.8203 H       1  UNL1        0.0826
     24 H          -1.5876    0.6923    1.8662 H       1  UNL1        0.0656
     25 H           0.6702    0.2409    1.2248 H       1  UNL1        0.1549
     26 H           4.6643    2.3233   -1.3627 H       1  UNL1        0.0321
     27 H           4.0267    3.4843   -0.1707 H       1  UNL1        0.0321
     28 H           5.0835    1.9692    1.3398 H       1  UNL1        0.0272
     29 H           4.9193    0.6214    0.2108 H       1  UNL1        0.0272
     30 H           2.8365    1.7056    2.1248 H       1  UNL1        0.0326
     31 H           3.1584    0.0258    1.6223 H       1  UNL1        0.0326
@<TRIPOS>BOND
     1     1     2    1
     2     2     3    1
     3     3     4   ar
     4     4     5   ar
     5     5     6   ar
     6     6     7    1
     7     7     8    2
     8     7     9   am
     9     9    10    1
    10    10    11    2
    11    11    12    1
    12    12    13    3
    13    11    14    1
    14    14    15    1
    15    15    16    1
    16     6    17   ar
    17    17     3   ar
    18    16    10    1
    19     1    18    1
    20     1    19    1
    21     1    20    1
    22     2    21    1
    23     2    22    1
    24     4    23    1
    25     5    24    1
    26     9    25    1
    27    14    26    1
    28    14    27    1
    29    15    28    1
    30    15    29    1
    31    16    30    1
    32    16    31    1
