@<TRIPOS>MOLECULE
*****
 43 46 0 0 0
SMALL
GASTEIGER

@<TRIPOS>ATOM
      1 C          -7.2607   -0.4952    0.9042 C.3     1  UNL1       -0.0523
      2 C          -6.7244    0.0358   -0.4220 C.3     1  UNL1       -0.0036
      3 N          -5.2913   -0.1434   -0.6730 N.3     1  UNL1       -0.2975
      4 C          -4.8685   -1.5623   -0.6826 C.3     1  UNL1        0.0047
      5 C          -3.4413   -1.7425   -1.2557 C.3     1  UNL1        0.0033
      6 C          -2.5243   -0.7223   -0.6792 C.ar    1  UNL1        0.0561
      7 N          -1.1536   -0.8208   -0.7695 N.ar    1  UNL1       -0.2292
      8 C          -0.6182    0.2268   -0.1956 C.ar    1  UNL1        0.1651
      9 N           0.6971    0.5687   -0.0486 N.am    1  UNL1       -0.2607
     10 C           1.7246   -0.2511   -0.4535 C.2     1  UNL1        0.2498
     11 O           1.6410   -1.3790   -0.9215 O.2     1  UNL1       -0.2698
     12 C           3.0848    0.3193   -0.2416 C.ar    1  UNL1        0.0408
     13 C           3.3483    1.6844   -0.4307 C.ar    1  UNL1       -0.0459
     14 C           4.6384    2.1804   -0.2260 C.ar    1  UNL1       -0.0156
     15 C           5.6635    1.3161    0.1547 C.ar    1  UNL1        0.1621
     16 C           5.3998   -0.0433    0.3539 C.ar    1  UNL1        0.1628
     17 C           4.1188   -0.5463    0.1363 C.ar    1  UNL1       -0.0042
     18 O           6.3550   -0.9419    0.7547 O.3     1  UNL1       -0.4849
     19 C           7.5207   -0.2804    1.2589 C.3     1  UNL1        0.1237
     20 C           7.9261    0.8646    0.3458 C.3     1  UNL1        0.1237
     21 O           6.9069    1.8713    0.3157 O.3     1  UNL1       -0.4849
     22 S          -1.7038    1.3734    0.4771 S.2     1  UNL1       -0.0554
     23 C          -3.0010    0.3988   -0.0333 C.ar    1  UNL1        0.0283
     24 C          -4.4450    0.6856    0.2140 C.3     1  UNL1        0.0321
     25 H          -7.1146   -1.5754    0.9977 H       1  UNL1        0.0242
     26 H          -6.7910   -0.0044    1.7612 H       1  UNL1        0.0242
     27 H          -8.3375   -0.3046    0.9681 H       1  UNL1        0.0242
     28 H          -6.9686    1.1028   -0.4995 H       1  UNL1        0.0424
     29 H          -7.2809   -0.4447   -1.2366 H       1  UNL1        0.0424
     30 H          -4.9014   -1.9743    0.3347 H       1  UNL1        0.0430
     31 H          -5.5542   -2.1584   -1.2970 H       1  UNL1        0.0430
     32 H          -3.4638   -1.6211   -2.3452 H       1  UNL1        0.0341
     33 H          -3.0782   -2.7522   -1.0365 H       1  UNL1        0.0341
     34 H           0.8769    1.4313    0.4393 H       1  UNL1        0.1571
     35 H           2.5736    2.3659   -0.7716 H       1  UNL1        0.0626
     36 H           4.8513    3.2344   -0.3851 H       1  UNL1        0.0655
     37 H           3.9234   -1.6080    0.2716 H       1  UNL1        0.0663
     38 H           8.3239   -1.0216    1.3164 H       1  UNL1        0.0731
     39 H           7.3079    0.0730    2.2755 H       1  UNL1        0.0731
     40 H           8.1044    0.5177   -0.6796 H       1  UNL1        0.0731
     41 H           8.8446    1.3339    0.7119 H       1  UNL1        0.0731
     42 H          -4.6504    1.7453    0.0220 H       1  UNL1        0.0481
     43 H          -4.6581    0.4815    1.2698 H       1  UNL1        0.0481
@<TRIPOS>BOND
     1     1     2    1
     2     2     3    1
     3     3     4    1
     4     4     5    1
     5     5     6    1
     6     6     7   ar
     7     7     8   ar
     8     8     9    1
     9     9    10   am
    10    10    11    2
    11    10    12    1
    12    12    13   ar
    13    13    14   ar
    14    14    15   ar
    15    15    16   ar
    16    16    17   ar
    17    16    18    1
    18    18    19    1
    19    19    20    1
    20    20    21    1
    21     8    22   ar
    22    22    23   ar
    23    23    24    1
    24    24     3    1
    25    23     6   ar
    26    17    12   ar
    27    21    15    1
    28     1    25    1
    29     1    26    1
    30     1    27    1
    31     2    28    1
    32     2    29    1
    33     4    30    1
    34     4    31    1
    35     5    32    1
    36     5    33    1
    37     9    34    1
    38    13    35    1
    39    14    36    1
    40    17    37    1
    41    19    38    1
    42    19    39    1
    43    20    40    1
    44    20    41    1
    45    24    42    1
    46    24    43    1
