@<TRIPOS>MOLECULE
*****
 50 52 0 0 0
SMALL
GASTEIGER

@<TRIPOS>ATOM
      1 C           5.7067    0.5363    1.7965 C.3     1  UNL1       -0.0523
      2 C           5.1598   -0.5346    0.8596 C.3     1  UNL1       -0.0036
      3 N           4.2201    0.0164   -0.1246 N.3     1  UNL1       -0.2982
      4 C           4.8721    0.8992   -1.0988 C.3     1  UNL1       -0.0007
      5 C           3.8092    1.0401   -2.1706 C.3     1  UNL1       -0.0387
      6 C           3.1389   -0.3247   -2.2220 C.3     1  UNL1       -0.0347
      7 C           3.5791   -1.0483   -0.9398 C.3     1  UNL1        0.0259
      8 C           2.3922   -1.7128   -0.2182 C.3     1  UNL1        0.0273
      9 N           1.5537   -0.7223    0.4339 N.am    1  UNL1       -0.3110
     10 C           0.3368   -1.0553    0.9864 C.2     1  UNL1        0.2507
     11 O          -0.1582   -2.1734    0.8809 O.2     1  UNL1       -0.2721
     12 C          -0.3360    0.1068    1.7270 C.3     1  UNL1        0.1652
     13 O          -1.7429    0.0036    1.8773 O.3     1  UNL1       -0.4819
     14 C          -2.5544    0.2279    0.7848 C.ar    1  UNL1        0.1354
     15 C          -2.1522    0.5717   -0.4461 C.ar    1  UNL1        0.0453
     16 C          -3.0996    0.8018   -1.5580 C.ar    1  UNL1        0.2550
     17 O          -2.6357    1.1288   -2.6496 O.2     1  UNL1       -0.2676
     18 N          -4.4501    0.6428   -1.2929 N.ar    1  UNL1       -0.3109
     19 C          -5.3929    0.8542   -2.3795 C.3     1  UNL1        0.0153
     20 C          -4.9236    0.2735    0.0030 C.ar    1  UNL1        0.0552
     21 C          -6.2949    0.1137    0.2679 C.ar    1  UNL1       -0.0374
     22 C          -6.7442   -0.2508    1.5391 C.ar    1  UNL1       -0.0598
     23 C          -5.8308   -0.4617    2.5632 C.ar    1  UNL1       -0.0610
     24 C          -4.4674   -0.3060    2.3160 C.ar    1  UNL1       -0.0491
     25 C          -3.9978    0.0635    1.0424 C.ar    1  UNL1        0.0404
     26 H           6.3402    1.2546    1.2674 H       1  UNL1        0.0242
     27 H           6.3164    0.0718    2.5786 H       1  UNL1        0.0242
     28 H           4.8945    1.0843    2.2855 H       1  UNL1        0.0242
     29 H           4.6423   -1.2741    1.4819 H       1  UNL1        0.0424
     30 H           5.9922   -1.0550    0.3697 H       1  UNL1        0.0424
     31 H           5.1298    1.8740   -0.6747 H       1  UNL1        0.0427
     32 H           5.7770    0.4435   -1.5208 H       1  UNL1        0.0427
     33 H           3.0738    1.8008   -1.8796 H       1  UNL1        0.0278
     34 H           4.2294    1.3315   -3.1387 H       1  UNL1        0.0278
     35 H           3.4844   -0.8819   -3.1007 H       1  UNL1        0.0281
     36 H           2.0526   -0.2105   -2.3093 H       1  UNL1        0.0281
     37 H           4.3084   -1.8205   -1.2212 H       1  UNL1        0.0478
     38 H           1.7816   -2.2999   -0.9135 H       1  UNL1        0.0477
     39 H           2.7505   -2.3920    0.5640 H       1  UNL1        0.0477
     40 H           2.0436    0.1133    0.7382 H       1  UNL1        0.1488
     41 H           0.0883    0.1060    2.7381 H       1  UNL1        0.0795
     42 H          -0.0633    1.0700    1.2793 H       1  UNL1        0.0795
     43 H          -1.1168    0.7065   -0.7250 H       1  UNL1        0.0709
     44 H          -5.9568   -0.0676   -2.5571 H       1  UNL1        0.0457
     45 H          -4.8891    1.1211   -3.3133 H       1  UNL1        0.0457
     46 H          -6.0710    1.6733   -2.1193 H       1  UNL1        0.0457
     47 H          -7.0450    0.2651   -0.5019 H       1  UNL1        0.0638
     48 H          -7.8083   -0.3724    1.7254 H       1  UNL1        0.0618
     49 H          -6.1738   -0.7502    3.5532 H       1  UNL1        0.0618
     50 H          -3.7689   -0.4820    3.1313 H       1  UNL1        0.0625
@<TRIPOS>BOND
     1     1     2    1
     2     2     3    1
     3     3     4    1
     4     4     5    1
     5     5     6    1
     6     6     7    1
     7     7     8    1
     8     8     9    1
     9     9    10   am
    10    10    11    2
    11    10    12    1
    12    12    13    1
    13    13    14    1
    14    14    15   ar
    15    15    16   ar
    16    16    17    2
    17    16    18   ar
    18    18    19    1
    19    18    20   ar
    20    20    21   ar
    21    21    22   ar
    22    22    23   ar
    23    23    24   ar
    24    24    25   ar
    25     7     3    1
    26    25    14   ar
    27    25    20   ar
    28     1    26    1
    29     1    27    1
    30     1    28    1
    31     2    29    1
    32     2    30    1
    33     4    31    1
    34     4    32    1
    35     5    33    1
    36     5    34    1
    37     6    35    1
    38     6    36    1
    39     7    37    1
    40     8    38    1
    41     8    39    1
    42     9    40    1
    43    12    41    1
    44    12    42    1
    45    15    43    1
    46    19    44    1
    47    19    45    1
    48    19    46    1
    49    21    47    1
    50    22    48    1
    51    23    49    1
    52    24    50    1
