@<TRIPOS>MOLECULE
*****
 36 37 0 0 0
SMALL
GASTEIGER

@<TRIPOS>ATOM
      1 C          -5.2054   -0.5306   -0.4131 C.3     1  UNL1       -0.0524
      2 C          -3.8133   -0.9184    0.0743 C.3     1  UNL1       -0.0038
      3 N          -3.1957    0.1195    0.9109 N.3     1  UNL1       -0.2996
      4 C          -2.8398    1.3470    0.1715 C.3     1  UNL1        0.0147
      5 C          -1.6640    1.1995   -0.8139 C.3     1  UNL1        0.0266
      6 N          -0.4681    0.5669   -0.2146 N.am    1  UNL1       -0.3100
      7 C           0.8392    0.8668   -0.6642 C.2     1  UNL1        0.1372
      8 S           1.2262    2.2483   -1.5455 S.2     1  UNL1       -0.0184
      9 N           1.7551   -0.1306   -0.3483 N.am    1  UNL1       -0.2967
     10 C           3.1602   -0.0767   -0.2049 C.ar    1  UNL1        0.0340
     11 C           3.8566    1.0787    0.1598 C.ar    1  UNL1       -0.0404
     12 C           5.2458    1.0526    0.3220 C.ar    1  UNL1       -0.0586
     13 C           5.9489   -0.1357    0.1388 C.ar    1  UNL1       -0.0433
     14 C           5.2559   -1.2954   -0.1949 C.ar    1  UNL1        0.0427
     15 CL          6.1150   -2.7725   -0.4040 Cl      1  UNL1       -0.0835
     16 C           3.8696   -1.2739   -0.3574 C.ar    1  UNL1       -0.0222
     17 C          -0.7661   -0.5932    0.6481 C.3     1  UNL1        0.0266
     18 C          -1.9761   -0.3765    1.5781 C.3     1  UNL1        0.0147
     19 H          -5.6804   -1.3879   -0.9017 H       1  UNL1        0.0242
     20 H          -5.8459   -0.2248    0.4209 H       1  UNL1        0.0242
     21 H          -5.1713    0.2836   -1.1429 H       1  UNL1        0.0242
     22 H          -3.1893   -1.1883   -0.7849 H       1  UNL1        0.0424
     23 H          -3.9325   -1.8300    0.6737 H       1  UNL1        0.0424
     24 H          -3.7101    1.7564   -0.3523 H       1  UNL1        0.0442
     25 H          -2.5700    2.1124    0.9120 H       1  UNL1        0.0442
     26 H          -1.9554    0.5724   -1.6649 H       1  UNL1        0.0477
     27 H          -1.4375    2.1899   -1.2143 H       1  UNL1        0.0477
     28 H           1.3781   -1.0620   -0.4588 H       1  UNL1        0.1538
     29 H           3.3390    2.0128    0.3568 H       1  UNL1        0.0636
     30 H           5.7739    1.9616    0.6002 H       1  UNL1        0.0619
     31 H           7.0278   -0.1518    0.2660 H       1  UNL1        0.0632
     32 H           3.3539   -2.1934   -0.6187 H       1  UNL1        0.0651
     33 H          -0.9387   -1.4495   -0.0142 H       1  UNL1        0.0477
     34 H           0.1002   -0.8279    1.2753 H       1  UNL1        0.0477
     35 H          -1.6940    0.3547    2.3476 H       1  UNL1        0.0442
     36 H          -2.1917   -1.3036    2.1233 H       1  UNL1        0.0442
@<TRIPOS>BOND
     1     1     2    1
     2     2     3    1
     3     3     4    1
     4     4     5    1
     5     5     6    1
     6     6     7    1
     7     7     8    2
     8     7     9    1
     9     9    10    1
    10    10    11   ar
    11    11    12   ar
    12    12    13   ar
    13    13    14   ar
    14    14    15    1
    15    14    16   ar
    16     6    17    1
    17    17    18    1
    18    18     3    1
    19    16    10   ar
    20     1    19    1
    21     1    20    1
    22     1    21    1
    23     2    22    1
    24     2    23    1
    25     4    24    1
    26     4    25    1
    27     5    26    1
    28     5    27    1
    29     9    28    1
    30    11    29    1
    31    12    30    1
    32    13    31    1
    33    16    32    1
    34    17    33    1
    35    17    34    1
    36    18    35    1
    37    18    36    1
