@<TRIPOS>MOLECULE
*****
 49 51 0 0 0
SMALL
GASTEIGER

@<TRIPOS>ATOM
      1 C           3.8940   -0.7423    3.2257 C.3     1  UNL1       -0.0524
      2 C           2.9212   -1.7429    2.6024 C.3     1  UNL1       -0.0039
      3 N           1.9360   -1.2166    1.6511 N.3     1  UNL1       -0.3002
      4 C           2.5478   -0.5735    0.4743 C.3     1  UNL1        0.0117
      5 C           1.4697   -0.1377   -0.5461 C.3     1  UNL1        0.0124
      6 N           0.4827    0.7623    0.0528 N.3     1  UNL1       -0.2909
      7 C          -0.4856    1.4260   -0.8492 C.3     1  UNL1        0.0600
      8 C           0.0711    2.7505   -1.4184 C.ar    1  UNL1        0.0087
      9 C          -0.4892    3.5593   -2.3994 C.ar    1  UNL1       -0.0500
     10 C           0.2760    4.7293   -2.6704 C.ar    1  UNL1       -0.0544
     11 C           1.3854    4.8157   -1.8605 C.ar    1  UNL1       -0.0240
     12 S           1.5020    3.4931   -0.7852 S.2     1  UNL1       -0.1000
     13 C          -1.1905    0.5554   -1.9718 C.3     1  UNL1        0.0408
     14 C          -0.3270    0.1790   -3.1825 C.3     1  UNL1       -0.0448
     15 N          -1.8220   -0.6573   -1.4349 N.am    1  UNL1       -0.3044
     16 C          -3.0111   -0.5874   -0.7261 C.2     1  UNL1        0.2796
     17 O          -3.6545    0.4609   -0.6721 O.2     1  UNL1       -0.2668
     18 C          -3.4047   -1.8200   -0.0673 C.ar    1  UNL1        0.1890
     19 C          -2.9224   -3.1185   -0.1186 C.ar    1  UNL1       -0.0113
     20 C          -3.7180   -3.8910    0.7608 C.ar    1  UNL1       -0.0231
     21 C          -4.6462   -3.0255    1.2930 C.ar    1  UNL1        0.0928
     22 O          -4.4672   -1.7756    0.8006 O.2     1  UNL1       -0.4583
     23 C          -0.1085    0.1765    1.2640 C.3     1  UNL1        0.0124
     24 C           0.9717   -0.2873    2.2718 C.3     1  UNL1        0.0117
     25 H           3.3745    0.0411    3.7858 H       1  UNL1        0.0242
     26 H           4.5580   -1.2596    3.9268 H       1  UNL1        0.0242
     27 H           4.5289   -0.2705    2.4695 H       1  UNL1        0.0242
     28 H           3.5054   -2.5267    2.0999 H       1  UNL1        0.0424
     29 H           2.3836   -2.2580    3.4101 H       1  UNL1        0.0424
     30 H           3.1392    0.3060    0.7611 H       1  UNL1        0.0439
     31 H           3.2240   -1.2811   -0.0225 H       1  UNL1        0.0439
     32 H           1.9786    0.3528   -1.3828 H       1  UNL1        0.0439
     33 H           0.9856   -1.0458   -0.9245 H       1  UNL1        0.0439
     34 H          -1.3052    1.7821   -0.2053 H       1  UNL1        0.0536
     35 H          -1.4190    3.3273   -2.9141 H       1  UNL1        0.0626
     36 H           0.0149    5.4771   -3.4116 H       1  UNL1        0.0623
     37 H           2.1311    5.5986   -1.8384 H       1  UNL1        0.0693
     38 H          -2.0140    1.1648   -2.3695 H       1  UNL1        0.0514
     39 H           0.1943    1.0426   -3.6030 H       1  UNL1        0.0248
     40 H           0.4111   -0.5949   -2.9609 H       1  UNL1        0.0248
     41 H          -0.9645   -0.2292   -3.9750 H       1  UNL1        0.0248
     42 H          -1.2173   -1.4453   -1.2584 H       1  UNL1        0.1494
     43 H          -2.0940   -3.4775   -0.7156 H       1  UNL1        0.0657
     44 H          -3.6312   -4.9470    0.9791 H       1  UNL1        0.0649
     45 H          -5.4600   -3.1352    1.9987 H       1  UNL1        0.1029
     46 H          -0.7388   -0.6846    1.0148 H       1  UNL1        0.0439
     47 H          -0.7429    0.9143    1.7728 H       1  UNL1        0.0439
     48 H           0.4656   -0.7843    3.1091 H       1  UNL1        0.0439
     49 H           1.4813    0.6003    2.6720 H       1  UNL1        0.0439
@<TRIPOS>BOND
     1     1     2    1
     2     2     3    1
     3     3     4    1
     4     4     5    1
     5     5     6    1
     6     6     7    1
     7     7     8    1
     8     8     9   ar
     9     9    10   ar
    10    10    11   ar
    11    11    12   ar
    12     7    13    1
    13    13    14    1
    14    13    15    1
    15    15    16   am
    16    16    17    2
    17    16    18    1
    18    18    19   ar
    19    19    20   ar
    20    20    21   ar
    21    21    22   ar
    22     6    23    1
    23    23    24    1
    24    24     3    1
    25    12     8   ar
    26    22    18   ar
    27     1    25    1
    28     1    26    1
    29     1    27    1
    30     2    28    1
    31     2    29    1
    32     4    30    1
    33     4    31    1
    34     5    32    1
    35     5    33    1
    36     7    34    1
    37     9    35    1
    38    10    36    1
    39    11    37    1
    40    13    38    1
    41    14    39    1
    42    14    40    1
    43    14    41    1
    44    15    42    1
    45    19    43    1
    46    20    44    1
    47    21    45    1
    48    23    46    1
    49    23    47    1
    50    24    48    1
    51    24    49    1
