@<TRIPOS>MOLECULE
*****
 43 44 0 0 0
SMALL
GASTEIGER

@<TRIPOS>ATOM
      1 C           4.6755    0.5652    2.3178 C.3     1  UNL1       -0.0493
      2 C           4.6609   -0.8002    1.6457 C.3     1  UNL1        0.0123
      3 N           3.6129   -0.8875    0.6364 N.am    1  UNL1       -0.2925
      4 C           3.8981   -0.4258   -0.7136 C.3     1  UNL1        0.0309
      5 C           2.6396    0.0952   -1.3975 C.3     1  UNL1        0.0314
      6 N           1.5967   -0.9168   -1.3809 N.am    1  UNL1       -0.2835
      7 C           0.5350   -0.8332   -2.3811 C.3     1  UNL1        0.0915
      8 C          -0.4447    0.2965   -2.0552 C.2     1  UNL1        0.2306
      9 O          -0.4972    1.3263   -2.7213 O.2     1  UNL1       -0.2741
     10 N          -1.2264    0.0536   -0.9429 N.am    1  UNL1       -0.3112
     11 C          -2.2677    0.9685   -0.4958 C.3     1  UNL1        0.0232
     12 C          -2.4834    0.8069    1.0189 C.3     1  UNL1       -0.0345
     13 C          -3.8937    1.2066    1.4341 C.3     1  UNL1       -0.0514
     14 C          -4.9495    0.3281    0.7606 C.3     1  UNL1       -0.0529
     15 C          -4.5317   -0.1816   -0.6219 C.3     1  UNL1       -0.0514
     16 C          -3.5622    0.7754   -1.3088 C.3     1  UNL1       -0.0345
     17 C           1.3374   -1.6088   -0.1938 C.2     1  UNL1        0.3022
     18 O           0.3133   -2.2644   -0.0236 O.2     1  UNL1       -0.2649
     19 C           2.3912   -1.4897    0.9500 C.2     1  UNL1        0.3017
     20 O           2.1095   -1.9104    2.0662 O.2     1  UNL1       -0.2650
     21 H           3.7080    0.7828    2.7817 H       1  UNL1        0.0245
     22 H           4.8849    1.3611    1.5950 H       1  UNL1        0.0245
     23 H           5.4469    0.6012    3.0937 H       1  UNL1        0.0245
     24 H           4.5036   -1.5724    2.4075 H       1  UNL1        0.0462
     25 H           5.6241   -1.0062    1.1671 H       1  UNL1        0.0462
     26 H           4.3183   -1.2745   -1.2641 H       1  UNL1        0.0480
     27 H           4.6510    0.3688   -0.6742 H       1  UNL1        0.0480
     28 H           2.2563    0.9813   -0.8784 H       1  UNL1        0.0480
     29 H           2.8684    0.3627   -2.4342 H       1  UNL1        0.0480
     30 H          -0.0179   -1.7781   -2.4270 H       1  UNL1        0.0560
     31 H           0.9828   -0.6597   -3.3655 H       1  UNL1        0.0560
     32 H          -1.1699   -0.8722   -0.5190 H       1  UNL1        0.1490
     33 H          -1.9065    1.9867   -0.6944 H       1  UNL1        0.0498
     34 H          -1.7433    1.4117    1.5589 H       1  UNL1        0.0283
     35 H          -2.3082   -0.2332    1.3290 H       1  UNL1        0.0283
     36 H          -4.0652    2.2569    1.1650 H       1  UNL1        0.0266
     37 H          -4.0018    1.1422    2.5226 H       1  UNL1        0.0266
     38 H          -5.1756   -0.5352    1.3981 H       1  UNL1        0.0265
     39 H          -5.8821    0.8985    0.6804 H       1  UNL1        0.0265
     40 H          -5.4234   -0.3273   -1.2445 H       1  UNL1        0.0266
     41 H          -4.0581   -1.1672   -0.5207 H       1  UNL1        0.0266
     42 H          -4.0596    1.7482   -1.4211 H       1  UNL1        0.0283
     43 H          -3.3464    0.4197   -2.3228 H       1  UNL1        0.0283
@<TRIPOS>BOND
     1     1     2    1
     2     2     3    1
     3     3     4    1
     4     4     5    1
     5     5     6    1
     6     6     7    1
     7     7     8    1
     8     8     9    2
     9     8    10   am
    10    10    11    1
    11    11    12    1
    12    12    13    1
    13    13    14    1
    14    14    15    1
    15    15    16    1
    16     6    17   am
    17    17    18    2
    18    17    19    1
    19    19    20    2
    20    19     3   am
    21    16    11    1
    22     1    21    1
    23     1    22    1
    24     1    23    1
    25     2    24    1
    26     2    25    1
    27     4    26    1
    28     4    27    1
    29     5    28    1
    30     5    29    1
    31     7    30    1
    32     7    31    1
    33    10    32    1
    34    11    33    1
    35    12    34    1
    36    12    35    1
    37    13    36    1
    38    13    37    1
    39    14    38    1
    40    14    39    1
    41    15    40    1
    42    15    41    1
    43    16    42    1
    44    16    43    1
