@<TRIPOS>MOLECULE
*****
 31 33 0 0 0
SMALL
GASTEIGER

@<TRIPOS>ATOM
      1 C          -0.5252    3.6388    0.6382 C.3     1  UNL1       -0.0454
      2 C          -0.3980    2.9166   -0.6933 C.3     1  UNL1        0.0411
      3 N          -0.1187    1.4972   -0.4826 N.ar    1  UNL1       -0.2432
      4 N           1.2103    1.1740   -0.3698 N.ar    1  UNL1       -0.1487
      5 C           1.5197   -0.0615   -0.1056 C.ar    1  UNL1        0.1873
      6 C           2.8966   -0.5035    0.0325 C.ar    1  UNL1        0.0580
      7 C           3.3782   -1.7734    0.3084 C.ar    1  UNL1       -0.0439
      8 C           4.8011   -1.8253    0.3689 C.ar    1  UNL1       -0.0540
      9 C           5.3689   -0.5939    0.1378 C.ar    1  UNL1       -0.0236
     10 S           4.1918    0.6111   -0.1490 S.2     1  UNL1       -0.0935
     11 N           0.6183   -1.0826    0.0741 N.ar    1  UNL1       -0.2168
     12 C          -0.6475   -0.8047    0.0023 C.ar    1  UNL1        0.1744
     13 C          -1.6652   -1.8876    0.1881 C.ar    1  UNL1        0.2841
     14 O          -1.3056   -3.0241    0.4640 O.2     1  UNL1       -0.2651
     15 N          -2.9690   -1.4642    0.0425 N.ar    1  UNL1       -0.2607
     16 C          -4.0233   -2.4407    0.2359 C.3     1  UNL1        0.0197
     17 C          -3.3407   -0.1285   -0.0643 C.ar    1  UNL1        0.3529
     18 O          -4.5195    0.1986    0.0491 O.2     1  UNL1       -0.2443
     19 N          -2.3924    0.8319   -0.2890 N.ar    1  UNL1       -0.1717
     20 C          -1.1272    0.5803   -0.2698 C.ar    1  UNL1        0.1860
     21 H          -1.3441    3.2265    1.2367 H       1  UNL1        0.0247
     22 H           0.3953    3.5491    1.2246 H       1  UNL1        0.0247
     23 H          -0.7240    4.7026    0.4757 H       1  UNL1        0.0247
     24 H           0.4084    3.3724   -1.2808 H       1  UNL1        0.0507
     25 H          -1.3159    3.0454   -1.2785 H       1  UNL1        0.0507
     26 H           2.7324   -2.6313    0.4607 H       1  UNL1        0.0630
     27 H           5.3762   -2.7206    0.5717 H       1  UNL1        0.0623
     28 H           6.4203   -0.3409    0.1232 H       1  UNL1        0.0693
     29 H          -4.3532   -2.3929    1.2787 H       1  UNL1        0.0458
     30 H          -3.6735   -3.4542    0.0192 H       1  UNL1        0.0458
     31 H          -4.8744   -2.2149   -0.4142 H       1  UNL1        0.0458
@<TRIPOS>BOND
     1     1     2    1
     2     2     3    1
     3     3     4   ar
     4     4     5   ar
     5     5     6    1
     6     6     7   ar
     7     7     8   ar
     8     8     9   ar
     9     9    10   ar
    10     5    11   ar
    11    11    12   ar
    12    12    13   ar
    13    13    14    2
    14    13    15   ar
    15    15    16    1
    16    15    17   ar
    17    17    18    2
    18    17    19   ar
    19    19    20   ar
    20    20     3   ar
    21    10     6   ar
    22    20    12    1
    23     1    21    1
    24     1    22    1
    25     1    23    1
    26     2    24    1
    27     2    25    1
    28     7    26    1
    29     8    27    1
    30     9    28    1
    31    16    29    1
    32    16    30    1
    33    16    31    1
