@<TRIPOS>MOLECULE
*****
 28 29 0 0 0
SMALL
GASTEIGER

@<TRIPOS>ATOM
      1 C          -4.0544    0.3247    0.7883 C.3     1  UNL1       -0.0495
      2 C          -3.3448   -0.4216   -0.3269 C.3     1  UNL1        0.0091
      3 N          -1.9816    0.0353   -0.4897 N.am    1  UNL1       -0.3103
      4 C          -0.9472   -0.4498    0.2812 C.2     1  UNL1        0.2627
      5 O          -1.1254   -1.3227    1.1251 O.2     1  UNL1       -0.2685
      6 C           0.3441    0.1214   -0.0109 C.ar    1  UNL1        0.1311
      7 C           0.7040    1.4089   -0.3977 C.ar    1  UNL1        0.0694
      8 C          -0.1366    2.6167   -0.5863 C.3     1  UNL1       -0.0201
      9 N           2.0610    1.5122   -0.5872 N.ar    1  UNL1       -0.2322
     10 C           2.5500    0.3322   -0.2832 C.ar    1  UNL1        0.1384
     11 C           3.8922   -0.1439   -0.2808 C.ar    1  UNL1       -0.0188
     12 C           4.1527   -1.4154    0.0773 C.ar    1  UNL1       -0.0569
     13 C           3.0878   -2.3244    0.4647 C.ar    1  UNL1       -0.0450
     14 C           1.8192   -1.8811    0.4632 C.ar    1  UNL1        0.0119
     15 N           1.5478   -0.5590    0.0942 N.ar    1  UNL1       -0.2953
     16 H          -5.0904   -0.0162    0.8766 H       1  UNL1        0.0245
     17 H          -4.0622    1.4024    0.5934 H       1  UNL1        0.0245
     18 H          -3.5579    0.1645    1.7509 H       1  UNL1        0.0245
     19 H          -3.8596   -0.2544   -1.2783 H       1  UNL1        0.0459
     20 H          -3.3453   -1.4973   -0.1218 H       1  UNL1        0.0459
     21 H          -1.7751    0.6666   -1.2500 H       1  UNL1        0.1490
     22 H          -0.5855    2.6173   -1.5840 H       1  UNL1        0.0293
     23 H          -0.9346    2.6633    0.1610 H       1  UNL1        0.0293
     24 H           0.4653    3.5258   -0.4856 H       1  UNL1        0.0293
     25 H           4.6825    0.5393   -0.5694 H       1  UNL1        0.0654
     26 H           5.1711   -1.7916    0.0858 H       1  UNL1        0.0619
     27 H           3.3382   -3.3411    0.7479 H       1  UNL1        0.0632
     28 H           0.9847   -2.5123    0.7424 H       1  UNL1        0.0813
@<TRIPOS>BOND
     1     1     2    1
     2     2     3    1
     3     3     4   am
     4     4     5    2
     5     4     6    1
     6     6     7   ar
     7     7     8    1
     8     7     9   ar
     9     9    10   ar
    10    10    11   ar
    11    11    12   ar
    12    12    13   ar
    13    13    14   ar
    14    14    15   ar
    15    15     6   ar
    16    15    10   ar
    17     1    16    1
    18     1    17    1
    19     1    18    1
    20     2    19    1
    21     2    20    1
    22     3    21    1
    23     8    22    1
    24     8    23    1
    25     8    24    1
    26    11    25    1
    27    12    26    1
    28    13    27    1
    29    14    28    1
