@<TRIPOS>MOLECULE
*****
 43 44 0 0 0
SMALL
GASTEIGER

@<TRIPOS>ATOM
      1 C          -7.4790    0.5338    1.1061 C.3     1  UNL1       -0.0495
      2 C          -6.7291    0.5478   -0.2138 C.3     1  UNL1        0.0088
      3 N          -5.4547   -0.1320   -0.1118 N.am    1  UNL1       -0.3155
      4 C          -4.3261    0.5061    0.3583 C.2     1  UNL1        0.2146
      5 O          -4.3084    1.6821    0.7021 O.2     1  UNL1       -0.2758
      6 C          -3.1251   -0.4091    0.4514 C.3     1  UNL1        0.0446
      7 C          -1.8317    0.3669    0.6688 C.3     1  UNL1        0.0973
      8 S          -1.1129    0.9628   -0.8785 S.3     1  UNL1       -0.0767
      9 C           0.5181    0.5246   -0.3983 C.2     1  UNL1        0.1640
     10 N           1.4593    0.9756   -1.1555 N.2     1  UNL1       -0.2258
     11 C           2.8199    0.8105   -0.9198 C.ar    1  UNL1        0.0665
     12 C           3.5055    1.6973   -0.0855 C.ar    1  UNL1       -0.0360
     13 C           4.8809    1.5591    0.1193 C.ar    1  UNL1       -0.0568
     14 C           5.5920    0.5373   -0.5206 C.ar    1  UNL1       -0.0503
     15 C           7.0749    0.4110   -0.3328 C.3     1  UNL1       -0.0397
     16 C           4.9131   -0.3171   -1.3974 C.ar    1  UNL1       -0.0568
     17 C           3.5379   -0.1739   -1.6000 C.ar    1  UNL1       -0.0360
     18 N           0.4972   -0.2544    0.7327 N.am    1  UNL1       -0.2500
     19 C           1.6191   -1.0086    1.2831 C.3     1  UNL1        0.0188
     20 C           1.7640   -2.3726    0.6222 C.3     1  UNL1       -0.0488
     21 C          -0.7550   -0.5003    1.2792 C.2     1  UNL1        0.2351
     22 O          -0.9800   -1.3118    2.1739 O.2     1  UNL1       -0.2740
     23 H          -8.4483    1.0301    0.9994 H       1  UNL1        0.0245
     24 H          -6.9137    1.0507    1.8884 H       1  UNL1        0.0245
     25 H          -7.6537   -0.4928    1.4449 H       1  UNL1        0.0245
     26 H          -6.5631    1.5798   -0.5408 H       1  UNL1        0.0459
     27 H          -7.3111    0.0324   -0.9843 H       1  UNL1        0.0459
     28 H          -5.4316   -1.1315   -0.2679 H       1  UNL1        0.1487
     29 H          -3.3215   -1.0736    1.3025 H       1  UNL1        0.0374
     30 H          -3.0688   -1.0457   -0.4403 H       1  UNL1        0.0374
     31 H          -1.9668    1.2187    1.3446 H       1  UNL1        0.0516
     32 H           2.9656    2.5047    0.4017 H       1  UNL1        0.0639
     33 H           5.3937    2.2615    0.7726 H       1  UNL1        0.0621
     34 H           7.3943   -0.6311   -0.4393 H       1  UNL1        0.0278
     35 H           7.3708    0.7402    0.6689 H       1  UNL1        0.0278
     36 H           7.5996    1.0200   -1.0753 H       1  UNL1        0.0278
     37 H           5.4517   -1.0915   -1.9388 H       1  UNL1        0.0621
     38 H           3.0236   -0.8278   -2.2989 H       1  UNL1        0.0639
     39 H           2.5460   -0.4467    1.2006 H       1  UNL1        0.0466
     40 H           1.4552   -1.1557    2.3576 H       1  UNL1        0.0466
     41 H           1.8813   -2.2854   -0.4615 H       1  UNL1        0.0245
     42 H           0.8807   -2.9933    0.8060 H       1  UNL1        0.0245
     43 H           2.6361   -2.8979    1.0232 H       1  UNL1        0.0245
@<TRIPOS>BOND
     1     1     2    1
     2     2     3    1
     3     3     4   am
     4     4     5    2
     5     4     6    1
     6     6     7    1
     7     7     8    1
     8     8     9    1
     9     9    10    2
    10    10    11    1
    11    11    12   ar
    12    12    13   ar
    13    13    14   ar
    14    14    15    1
    15    14    16   ar
    16    16    17   ar
    17     9    18    1
    18    18    19    1
    19    19    20    1
    20    18    21   am
    21    21    22    2
    22    21     7    1
    23    17    11   ar
    24     1    23    1
    25     1    24    1
    26     1    25    1
    27     2    26    1
    28     2    27    1
    29     3    28    1
    30     6    29    1
    31     6    30    1
    32     7    31    1
    33    12    32    1
    34    13    33    1
    35    15    34    1
    36    15    35    1
    37    15    36    1
    38    16    37    1
    39    17    38    1
    40    19    39    1
    41    19    40    1
    42    20    41    1
    43    20    42    1
    44    20    43    1
