@<TRIPOS>MOLECULE
*****
 32 36 0 0 0
SMALL
GASTEIGER

@<TRIPOS>ATOM
      1 SI         -5.1921   -0.1295    0.3298 Si      1  UNL1        0.0000
      2 C          -5.9982   -1.1676   -1.0145 C.2     1  UNL1        0.0000
      3 C          -5.0702   -1.6938   -1.8345 C.2     1  UNL1        0.0000
      4 C          -3.6927   -1.3522   -1.5078 C.2     1  UNL1        0.0000
      5 C          -3.5337   -0.5563   -0.4295 C.2     1  UNL1        0.0000
      6 C          -2.2739   -0.1162    0.0449 C.ar    1  UNL1        0.0000
      7 C          -1.9364    0.6971    1.1294 C.ar    1  UNL1        0.0000
      8 C          -0.5264    0.8331    1.1693 C.ar    1  UNL1        0.0000
      9 C           0.4228    1.4902    1.9748 C.ar    1  UNL1        0.0000
     10 C           1.8205    1.4011    1.7061 C.ar    1  UNL1        0.0000
     11 C           2.3538    0.6558    0.6242 C.ar    1  UNL1        0.0000
     12 C           3.6405    0.3956    0.1314 C.ar    1  UNL1        0.0000
     13 SI          5.4056    0.8555    0.5800 Si      1  UNL1        0.0000
     14 C           5.9891   -0.1885   -0.9182 C.2     1  UNL1        0.0000
     15 C           4.9537   -0.7482   -1.5805 C.2     1  UNL1        0.0000
     16 C           3.7042   -0.4125   -0.9876 C.ar    1  UNL1        0.0000
     17 S           2.1504   -0.8863   -1.4773 S.2     1  UNL1        0.0000
     18 C           1.4516   -0.0088   -0.1964 C.ar    1  UNL1        0.0000
     19 C          -0.0665    0.0938    0.1036 C.ar    1  UNL1        0.0000
     20 O          -1.0874   -0.4753   -0.5733 O.2     1  UNL1        0.0000
     21 H          -5.3885   -0.7136    1.6808 H       1  UNL1        0.0000
     22 H          -5.5413    1.3088    0.2104 H       1  UNL1        0.0000
     23 H          -7.0676   -1.2925   -1.0751 H       1  UNL1        0.0000
     24 H          -5.2994   -2.3275   -2.6825 H       1  UNL1        0.0000
     25 H          -2.8753   -1.7298   -2.1121 H       1  UNL1        0.0000
     26 H          -2.6322    1.1479    1.8227 H       1  UNL1        0.0000
     27 H           0.0898    2.0824    2.8248 H       1  UNL1        0.0000
     28 H           2.5007    1.9342    2.3688 H       1  UNL1        0.0000
     29 H           5.8837    0.2664    1.8555 H       1  UNL1        0.0000
     30 H           5.7299    2.2905    0.3851 H       1  UNL1        0.0000
     31 H           7.0388   -0.2762   -1.1488 H       1  UNL1        0.0000
     32 H           5.0466   -1.3776   -2.4567 H       1  UNL1        0.0000
@<TRIPOS>BOND
     1     1     2    1
     2     2     3    2
     3     3     4    1
     4     4     5    2
     5     5     6    1
     6     6     7   ar
     7     7     8   ar
     8     8     9   ar
     9     9    10   ar
    10    10    11   ar
    11    11    12   ar
    12    12    13    1
    13    13    14    1
    14    14    15    2
    15    15    16    1
    16    16    17   ar
    17    17    18   ar
    18    18    19   ar
    19    19    20   ar
    20     5     1    1
    21    20     6   ar
    22    19     8   ar
    23    18    11   ar
    24    16    12   ar
    25     1    21    1
    26     1    22    1
    27     2    23    1
    28     3    24    1
    29     4    25    1
    30     7    26    1
    31     9    27    1
    32    10    28    1
    33    13    29    1
    34    13    30    1
    35    14    31    1
    36    15    32    1
