@<TRIPOS>MOLECULE
*****
 48 49 0 0 0
SMALL
GASTEIGER

@<TRIPOS>ATOM
      1 C           4.2488    3.5193    0.5157 C.3     1  UNL1       -0.0495
      2 C           4.4789    2.1427    1.1071 C.3     1  UNL1        0.0088
      3 N           4.4027    1.1146    0.0923 N.am    1  UNL1       -0.3149
      4 C           4.8079   -0.1762    0.3767 C.2     1  UNL1        0.2233
      5 O           5.3638   -0.4935    1.4260 O.2     1  UNL1       -0.2749
      6 C           4.5056   -1.1842   -0.7201 C.3     1  UNL1        0.0776
      7 S           2.9715   -2.0867   -0.3512 S.3     1  UNL1       -0.0767
      8 C           1.7958   -0.8423   -0.5850 C.ar    1  UNL1        0.1923
      9 N           2.0063    0.2894   -1.2141 N.ar    1  UNL1       -0.1221
     10 N           0.8545    1.0250   -1.1435 N.ar    1  UNL1       -0.1283
     11 C          -0.0452    0.3332   -0.4661 C.ar    1  UNL1        0.1649
     12 C          -1.4049    0.7795   -0.1834 C.ar    1  UNL1        0.0195
     13 C          -1.8748    0.9115    1.1267 C.ar    1  UNL1       -0.0476
     14 C          -3.1849    1.3369    1.3649 C.ar    1  UNL1       -0.0193
     15 C          -4.0381    1.6507    0.3044 C.ar    1  UNL1        0.1201
     16 O          -5.2906    2.0508    0.6787 O.3     1  UNL1       -0.4951
     17 C          -6.1845    2.4241   -0.3627 C.3     1  UNL1        0.0788
     18 C          -3.5667    1.5424   -1.0033 C.ar    1  UNL1       -0.0193
     19 C          -2.2553    1.1150   -1.2438 C.ar    1  UNL1       -0.0476
     20 N           0.5062   -0.8898   -0.1289 N.ar    1  UNL1       -0.3018
     21 C          -0.1610   -1.9847    0.5485 C.3     1  UNL1        0.0294
     22 C          -1.1617   -2.7566   -0.3312 C.3     1  UNL1       -0.0286
     23 C          -0.4684   -3.5127   -1.4660 C.3     1  UNL1       -0.0610
     24 C          -1.9597   -3.7357    0.5323 C.3     1  UNL1       -0.0610
     25 H           4.9989    3.7468   -0.2490 H       1  UNL1        0.0245
     26 H           4.3076    4.2854    1.2947 H       1  UNL1        0.0245
     27 H           3.2623    3.5834    0.0444 H       1  UNL1        0.0245
     28 H           5.4610    2.0946    1.5898 H       1  UNL1        0.0459
     29 H           3.7199    1.9202    1.8650 H       1  UNL1        0.0459
     30 H           3.6302    1.1908   -0.5718 H       1  UNL1        0.1487
     31 H           4.4508   -0.6968   -1.6989 H       1  UNL1        0.0475
     32 H           5.3361   -1.8965   -0.7627 H       1  UNL1        0.0475
     33 H          -1.2268    0.7051    1.9749 H       1  UNL1        0.0626
     34 H          -3.5416    1.4363    2.3877 H       1  UNL1        0.0654
     35 H          -7.1278    2.7298    0.1001 H       1  UNL1        0.0660
     36 H          -5.7982    3.2790   -0.9276 H       1  UNL1        0.0660
     37 H          -6.3967    1.5765   -1.0227 H       1  UNL1        0.0660
     38 H          -4.1874    1.7860   -1.8591 H       1  UNL1        0.0654
     39 H          -1.8976    1.0459   -2.2701 H       1  UNL1        0.0626
     40 H          -0.6675   -1.5596    1.4212 H       1  UNL1        0.0495
     41 H           0.5927   -2.6667    0.9549 H       1  UNL1        0.0495
     42 H          -1.8736   -2.0552   -0.7820 H       1  UNL1        0.0313
     43 H           0.2750   -4.2176   -1.0788 H       1  UNL1        0.0233
     44 H          -1.1970   -4.0816   -2.0536 H       1  UNL1        0.0233
     45 H           0.0358   -2.8243   -2.1514 H       1  UNL1        0.0233
     46 H          -2.5012   -3.2046    1.3224 H       1  UNL1        0.0233
     47 H          -2.6971   -4.2757   -0.0711 H       1  UNL1        0.0233
     48 H          -1.3038   -4.4737    1.0067 H       1  UNL1        0.0233
@<TRIPOS>BOND
     1     1     2    1
     2     2     3    1
     3     3     4   am
     4     4     5    2
     5     4     6    1
     6     6     7    1
     7     7     8    1
     8     8     9   ar
     9     9    10   ar
    10    10    11   ar
    11    11    12    1
    12    12    13   ar
    13    13    14   ar
    14    14    15   ar
    15    15    16    1
    16    16    17    1
    17    15    18   ar
    18    18    19   ar
    19    11    20   ar
    20    20    21    1
    21    21    22    1
    22    22    23    1
    23    22    24    1
    24    20     8   ar
    25    19    12   ar
    26     1    25    1
    27     1    26    1
    28     1    27    1
    29     2    28    1
    30     2    29    1
    31     3    30    1
    32     6    31    1
    33     6    32    1
    34    13    33    1
    35    14    34    1
    36    17    35    1
    37    17    36    1
    38    17    37    1
    39    18    38    1
    40    19    39    1
    41    21    40    1
    42    21    41    1
    43    22    42    1
    44    23    43    1
    45    23    44    1
    46    23    45    1
    47    24    46    1
    48    24    47    1
    49    24    48    1
