@<TRIPOS>MOLECULE
*****
 29 30 0 0 0
SMALL
GASTEIGER

@<TRIPOS>ATOM
      1 C           4.5499   -1.3074   -0.4034 C.3     1  UNL1       -0.0496
      2 C           4.4366    0.1975   -0.5857 C.3     1  UNL1        0.0081
      3 N           3.3992    0.7470    0.2669 N.pl3   1  UNL1       -0.3223
      4 C           2.1032    0.6808   -0.1230 C.ar    1  UNL1        0.1818
      5 N           1.6632    0.4189   -1.3355 N.ar    1  UNL1       -0.1257
      6 N           0.2854    0.4189   -1.4166 N.ar    1  UNL1       -0.1395
      7 C          -0.2834    0.6573   -0.2513 C.ar    1  UNL1        0.1371
      8 C          -1.7285    0.7565   -0.0363 C.ar    1  UNL1        0.0506
      9 C          -2.4854    1.5415   -0.9234 C.ar    1  UNL1       -0.0485
     10 C          -3.8657    1.6869   -0.7579 C.ar    1  UNL1       -0.0609
     11 C          -4.5125    1.0473    0.2969 C.ar    1  UNL1       -0.0583
     12 C          -3.7834    0.2483    1.1755 C.ar    1  UNL1       -0.0193
     13 C          -2.4060    0.0837    0.9935 C.ar    1  UNL1        0.1298
     14 O          -1.7395   -0.7254    1.8798 O.3     1  UNL1       -0.4944
     15 C          -1.7903   -2.0836    1.4368 C.3     1  UNL1        0.0788
     16 S           0.8409    0.9515    1.0155 S.2     1  UNL1       -0.0307
     17 H           5.3686   -1.7028   -1.0125 H       1  UNL1        0.0245
     18 H           4.7479   -1.5625    0.6431 H       1  UNL1        0.0245
     19 H           3.6276   -1.8159   -0.7031 H       1  UNL1        0.0245
     20 H           5.3896    0.6617   -0.3083 H       1  UNL1        0.0459
     21 H           4.2647    0.4446   -1.6401 H       1  UNL1        0.0459
     22 H           3.5856    0.7224    1.2631 H       1  UNL1        0.1480
     23 H          -1.9944    2.0539   -1.7500 H       1  UNL1        0.0625
     24 H          -4.4322    2.3048   -1.4505 H       1  UNL1        0.0618
     25 H          -5.5841    1.1689    0.4332 H       1  UNL1        0.0619
     26 H          -4.2866   -0.2509    1.9991 H       1  UNL1        0.0654
     27 H          -2.8169   -2.4652    1.4547 H       1  UNL1        0.0660
     28 H          -1.1939   -2.6835    2.1307 H       1  UNL1        0.0660
     29 H          -1.3596   -2.1954    0.4355 H       1  UNL1        0.0660
@<TRIPOS>BOND
     1     1     2    1
     2     2     3    1
     3     3     4    1
     4     4     5   ar
     5     5     6   ar
     6     6     7   ar
     7     7     8    1
     8     8     9   ar
     9     9    10   ar
    10    10    11   ar
    11    11    12   ar
    12    12    13   ar
    13    13    14    1
    14    14    15    1
    15     7    16   ar
    16    16     4   ar
    17    13     8   ar
    18     1    17    1
    19     1    18    1
    20     1    19    1
    21     2    20    1
    22     2    21    1
    23     3    22    1
    24     9    23    1
    25    10    24    1
    26    11    25    1
    27    12    26    1
    28    15    27    1
    29    15    28    1
    30    15    29    1
