@<TRIPOS>MOLECULE
*****
 36 37 0 0 0
SMALL
GASTEIGER

@<TRIPOS>ATOM
      1 C          -5.1427   -1.6820   -0.7603 C.3     1  UNL1       -0.0306
      2 C          -4.2513   -1.5251    0.4563 C.3     1  UNL1        0.0900
      3 O          -2.9404   -1.1743    0.0052 O.3     1  UNL1       -0.4606
      4 C          -2.0652   -0.9118    1.0111 C.2     1  UNL1        0.3535
      5 O          -2.2609   -1.0801    2.2062 O.2     1  UNL1       -0.2435
      6 C          -0.7533   -0.5014    0.4244 C.2     1  UNL1        0.1191
      7 C           0.2957   -1.2593    0.7988 C.2     1  UNL1       -0.0243
      8 C           1.6525   -1.1010    0.3838 C.ar    1  UNL1        0.0020
      9 C           2.4040   -2.1229   -0.1508 C.ar    1  UNL1        0.0100
     10 N           3.6415   -1.6178   -0.4531 N.ar    1  UNL1       -0.3601
     11 C           3.7128   -0.2877   -0.1031 C.ar    1  UNL1        0.0470
     12 C           4.7727    0.6188   -0.2244 C.ar    1  UNL1       -0.0378
     13 C           4.5706    1.9201    0.2448 C.ar    1  UNL1       -0.0598
     14 C           3.3588    2.2959    0.8186 C.ar    1  UNL1       -0.0611
     15 C           2.3086    1.3781    0.9312 C.ar    1  UNL1       -0.0520
     16 C           2.4792    0.0616    0.4509 C.ar    1  UNL1        0.0069
     17 N          -0.6450    0.5324   -0.4891 N.am    1  UNL1       -0.2801
     18 C          -1.6028    1.4928   -0.7427 C.2     1  UNL1        0.2143
     19 C          -1.2087    2.4470   -1.8410 C.3     1  UNL1        0.0125
     20 O          -2.6770    1.6032   -0.1618 O.2     1  UNL1       -0.2758
     21 H          -6.1604   -1.9533   -0.4664 H       1  UNL1        0.0262
     22 H          -4.7495   -2.4546   -1.4293 H       1  UNL1        0.0262
     23 H          -5.1767   -0.7505   -1.3347 H       1  UNL1        0.0262
     24 H          -4.6478   -0.7360    1.1054 H       1  UNL1        0.0695
     25 H          -4.2090   -2.4705    1.0083 H       1  UNL1        0.0695
     26 H           0.1114   -2.0955    1.4737 H       1  UNL1        0.0645
     27 H           2.1683   -3.1590   -0.3566 H       1  UNL1        0.0813
     28 H           4.4015   -2.1432   -0.8632 H       1  UNL1        0.1654
     29 H           5.7237    0.3272   -0.6586 H       1  UNL1        0.0638
     30 H           5.3769    2.6466    0.1699 H       1  UNL1        0.0618
     31 H           3.2276    3.3094    1.1902 H       1  UNL1        0.0618
     32 H           1.3745    1.6805    1.3973 H       1  UNL1        0.0624
     33 H           0.2618    0.6458   -0.9278 H       1  UNL1        0.1550
     34 H          -1.5481    3.4535   -1.5801 H       1  UNL1        0.0323
     35 H          -0.1239    2.4818   -1.9765 H       1  UNL1        0.0323
     36 H          -1.6795    2.1313   -2.7755 H       1  UNL1        0.0323
@<TRIPOS>BOND
     1     1     2    1
     2     2     3    1
     3     3     4    1
     4     4     5    2
     5     4     6    1
     6     6     7    2
     7     7     8    1
     8     8     9   ar
     9     9    10   ar
    10    10    11   ar
    11    11    12   ar
    12    12    13   ar
    13    13    14   ar
    14    14    15   ar
    15    15    16   ar
    16     6    17    1
    17    17    18   am
    18    18    19    1
    19    18    20    2
    20    16     8   ar
    21    16    11   ar
    22     1    21    1
    23     1    22    1
    24     1    23    1
    25     2    24    1
    26     2    25    1
    27     7    26    1
    28     9    27    1
    29    10    28    1
    30    12    29    1
    31    13    30    1
    32    14    31    1
    33    15    32    1
    34    17    33    1
    35    19    34    1
    36    19    35    1
    37    19    36    1
