@<TRIPOS>MOLECULE
*****
 33 33 0 0 0
SMALL
GASTEIGER

@<TRIPOS>ATOM
      1 C          -4.4350   -0.5883   -3.1320 C.3     1  UNL1       -0.0306
      2 C          -4.4317   -0.1880   -1.6698 C.3     1  UNL1        0.0900
      3 O          -3.0725    0.0275   -1.2699 O.3     1  UNL1       -0.4609
      4 C          -2.9247    0.3699    0.0369 C.2     1  UNL1        0.3499
      5 O          -3.8262    0.5090    0.8484 O.2     1  UNL1       -0.2442
      6 C          -1.4971    0.6061    0.3395 C.2     1  UNL1        0.1389
      7 C          -1.2055    1.8841    0.8952 C.1     1  UNL1        0.1066
      8 N          -0.9609    2.9274    1.3423 N.1     1  UNL1       -0.1906
      9 C          -0.5622   -0.3464    0.1116 C.2     1  UNL1       -0.0190
     10 C          -0.8396   -1.7309   -0.4199 C.3     1  UNL1       -0.0377
     11 C           0.8692   -0.0993    0.3870 C.ar    1  UNL1       -0.0205
     12 C           1.7674    0.0602   -0.6727 C.ar    1  UNL1       -0.0508
     13 C           3.1215    0.2901   -0.4162 C.ar    1  UNL1       -0.0194
     14 C           3.5973    0.3653    0.8948 C.ar    1  UNL1        0.1201
     15 O           4.9407    0.5958    1.0023 O.3     1  UNL1       -0.4951
     16 C           5.4620    0.7546    2.3159 C.3     1  UNL1        0.0788
     17 C           2.7045    0.2018    1.9537 C.ar    1  UNL1       -0.0194
     18 C           1.3473   -0.0316    1.7014 C.ar    1  UNL1       -0.0508
     19 H          -5.4544   -0.7652   -3.4860 H       1  UNL1        0.0262
     20 H          -3.9775    0.1939   -3.7469 H       1  UNL1        0.0262
     21 H          -3.8447   -1.4982   -3.2836 H       1  UNL1        0.0262
     22 H          -4.8729   -0.9889   -1.0660 H       1  UNL1        0.0695
     23 H          -5.0061    0.7355   -1.5363 H       1  UNL1        0.0695
     24 H          -1.8778   -2.0402   -0.2664 H       1  UNL1        0.0278
     25 H          -0.2222   -2.4772    0.0938 H       1  UNL1        0.0278
     26 H          -0.6191   -1.7820   -1.4913 H       1  UNL1        0.0278
     27 H           1.4266    0.0139   -1.7043 H       1  UNL1        0.0625
     28 H           3.8127    0.4169   -1.2461 H       1  UNL1        0.0654
     29 H           4.9972    1.6046    2.8264 H       1  UNL1        0.0660
     30 H           5.3502   -0.1663    2.8977 H       1  UNL1        0.0660
     31 H           6.5324    0.9642    2.2276 H       1  UNL1        0.0660
     32 H           3.0289    0.2498    2.9879 H       1  UNL1        0.0654
     33 H           0.6720   -0.1595    2.5450 H       1  UNL1        0.0625
@<TRIPOS>BOND
     1     1     2    1
     2     2     3    1
     3     3     4    1
     4     4     5    2
     5     4     6    1
     6     6     7    1
     7     7     8    3
     8     6     9    2
     9     9    10    1
    10     9    11    1
    11    11    12   ar
    12    12    13   ar
    13    13    14   ar
    14    14    15    1
    15    15    16    1
    16    14    17   ar
    17    17    18   ar
    18    18    11   ar
    19     1    19    1
    20     1    20    1
    21     1    21    1
    22     2    22    1
    23     2    23    1
    24    10    24    1
    25    10    25    1
    26    10    26    1
    27    12    27    1
    28    13    28    1
    29    16    29    1
    30    16    30    1
    31    16    31    1
    32    17    32    1
    33    18    33    1
