@<TRIPOS>MOLECULE
*****
 35 36 0 0 0
SMALL
GASTEIGER

@<TRIPOS>ATOM
      1 C           3.8860    1.9687   -0.0076 C.3     1  UNL1       -0.0306
      2 C           2.7103    1.7699   -0.9450 C.3     1  UNL1        0.0898
      3 O           1.8125    0.7898   -0.4030 O.3     1  UNL1       -0.4625
      4 C           2.0708   -0.5086   -0.7084 C.2     1  UNL1        0.3531
      5 O           3.0308   -0.8777   -1.3842 O.2     1  UNL1       -0.2468
      6 C           1.0768   -1.4943   -0.0946 C.3     1  UNL1        0.2852
      7 O           1.2503   -2.7461   -0.8460 O.3     1  UNL1       -0.3668
      8 C          -0.3732   -1.0461   -0.2270 C.ar    1  UNL1        0.0288
      9 C          -1.2959   -1.6202   -1.0914 C.ar    1  UNL1        0.0121
     10 N          -2.5007   -0.9991   -0.9418 N.ar    1  UNL1       -0.3493
     11 C          -3.7009   -1.3443   -1.6709 C.3     1  UNL1        0.0119
     12 C          -2.4066   -0.0028    0.0016 C.ar    1  UNL1        0.0492
     13 C          -3.3796    0.8924    0.4782 C.ar    1  UNL1       -0.0376
     14 C          -3.0066    1.8204    1.4505 C.ar    1  UNL1       -0.0598
     15 C          -1.7045    1.8570    1.9294 C.ar    1  UNL1       -0.0611
     16 C          -0.7429    0.9600    1.4484 C.ar    1  UNL1       -0.0522
     17 C          -1.0851    0.0001    0.4681 C.ar    1  UNL1        0.0066
     18 C           1.5771   -1.7071    1.3420 C.3     1  UNL1        0.4331
     19 F           0.7295   -2.4674    2.0770 F       1  UNL1       -0.1667
     20 F           2.7692   -2.3667    1.3346 F       1  UNL1       -0.1667
     21 F           1.7874   -0.5637    2.0308 F       1  UNL1       -0.1667
     22 H           4.4630    1.0447    0.1001 H       1  UNL1        0.0262
     23 H           4.5500    2.7544   -0.3788 H       1  UNL1        0.0262
     24 H           3.5370    2.2439    0.9932 H       1  UNL1        0.0262
     25 H           2.1472    2.7046   -1.0344 H       1  UNL1        0.0694
     26 H           3.0410    1.4942   -1.9527 H       1  UNL1        0.0694
     27 H           2.2151   -2.8487   -0.9767 H       1  UNL1        0.2116
     28 H          -1.1741   -2.4389   -1.7912 H       1  UNL1        0.0813
     29 H          -4.0230   -0.4692   -2.2410 H       1  UNL1        0.0456
     30 H          -4.4682   -1.6437   -0.9524 H       1  UNL1        0.0456
     31 H          -3.4910   -2.1722   -2.3530 H       1  UNL1        0.0456
     32 H          -4.3989    0.8708    0.1056 H       1  UNL1        0.0638
     33 H          -3.7431    2.5224    1.8339 H       1  UNL1        0.0618
     34 H          -1.4253    2.5886    2.6838 H       1  UNL1        0.0618
     35 H           0.2656    1.0349    1.8407 H       1  UNL1        0.0624
@<TRIPOS>BOND
     1     1     2    1
     2     2     3    1
     3     3     4    1
     4     4     5    2
     5     4     6    1
     6     6     7    1
     7     6     8    1
     8     8     9   ar
     9     9    10   ar
    10    10    11    1
    11    10    12   ar
    12    12    13   ar
    13    13    14   ar
    14    14    15   ar
    15    15    16   ar
    16    16    17   ar
    17     6    18    1
    18    18    19    1
    19    18    20    1
    20    18    21    1
    21    17     8   ar
    22    17    12   ar
    23     1    22    1
    24     1    23    1
    25     1    24    1
    26     2    25    1
    27     2    26    1
    28     7    27    1
    29     9    28    1
    30    11    29    1
    31    11    30    1
    32    11    31    1
    33    13    32    1
    34    14    33    1
    35    15    34    1
    36    16    35    1
