@<TRIPOS>MOLECULE
*****
 35 37 0 0 0
SMALL
GASTEIGER

@<TRIPOS>ATOM
      1 C          -4.1424   -1.8947   -1.0605 C.3     1  UNL1       -0.0306
      2 C          -3.1334   -2.6145   -0.1854 C.3     1  UNL1        0.0898
      3 O          -1.8448   -1.9952   -0.3057 O.3     1  UNL1       -0.4625
      4 C          -1.6183   -0.9093    0.4978 C.2     1  UNL1        0.3511
      5 O          -2.4224   -0.5110    1.3369 O.2     1  UNL1       -0.2468
      6 C          -0.2032   -0.3200    0.2690 C.3     1  UNL1        0.2594
      7 N           0.0073    0.9690    0.9672 N.pl3   1  UNL1       -0.2926
      8 C          -0.8130    2.0390    0.8436 C.ar    1  UNL1        0.1598
      9 N          -0.9471    2.8761    1.8477 N.ar    1  UNL1       -0.2333
     10 C          -1.8191    3.8945    1.5222 C.ar    1  UNL1        0.0368
     11 C          -2.3359    3.8436    0.2493 C.ar    1  UNL1       -0.0030
     12 S          -1.7064    2.4781   -0.5631 S.2     1  UNL1       -0.0609
     13 S           0.9554   -1.5055    1.1216 S.3     1  UNL1       -0.0771
     14 C           2.5031   -0.8912    0.4949 C.ar    1  UNL1        0.0321
     15 C           3.6609   -1.1032    1.2533 C.ar    1  UNL1       -0.0464
     16 C           4.9067   -0.7010    0.7695 C.ar    1  UNL1       -0.0606
     17 C           5.0053   -0.0996   -0.4826 C.ar    1  UNL1       -0.0599
     18 C           3.8579    0.1045   -1.2502 C.ar    1  UNL1       -0.0394
     19 C           2.6047   -0.2772   -0.7596 C.ar    1  UNL1        0.0471
     20 N           1.4912   -0.0742   -1.5853 N.am    1  UNL1       -0.2816
     21 C           0.1703   -0.2159   -1.2305 C.2     1  UNL1        0.2628
     22 O          -0.6660   -0.1579   -2.1385 O.2     1  UNL1       -0.2715
     23 H          -4.2721   -0.8563   -0.7395 H       1  UNL1        0.0262
     24 H          -3.7980   -1.8655   -2.0995 H       1  UNL1        0.0262
     25 H          -5.1141   -2.3952   -1.0243 H       1  UNL1        0.0262
     26 H          -3.4607   -2.6535    0.8596 H       1  UNL1        0.0694
     27 H          -3.0233   -3.6492   -0.5261 H       1  UNL1        0.0694
     28 H           0.2539    0.8076    1.9392 H       1  UNL1        0.1502
     29 H          -2.0423    4.6562    2.2588 H       1  UNL1        0.0835
     30 H          -3.0277    4.5226   -0.2268 H       1  UNL1        0.0709
     31 H           3.6037   -1.5890    2.2252 H       1  UNL1        0.0629
     32 H           5.8002   -0.8656    1.3671 H       1  UNL1        0.0618
     33 H           5.9764    0.2082   -0.8628 H       1  UNL1        0.0618
     34 H           3.9553    0.5734   -2.2261 H       1  UNL1        0.0636
     35 H           1.6378    0.1721   -2.5562 H       1  UNL1        0.1549
@<TRIPOS>BOND
     1     1     2    1
     2     2     3    1
     3     3     4    1
     4     4     5    2
     5     4     6    1
     6     6     7    1
     7     7     8    1
     8     8     9   ar
     9     9    10   ar
    10    10    11   ar
    11    11    12   ar
    12     6    13    1
    13    13    14    1
    14    14    15   ar
    15    15    16   ar
    16    16    17   ar
    17    17    18   ar
    18    18    19   ar
    19    19    20    1
    20    20    21   am
    21    21    22    2
    22    21     6    1
    23    12     8   ar
    24    19    14   ar
    25     1    23    1
    26     1    24    1
    27     1    25    1
    28     2    26    1
    29     2    27    1
    30     7    28    1
    31    10    29    1
    32    11    30    1
    33    15    31    1
    34    16    32    1
    35    17    33    1
    36    18    34    1
    37    20    35    1
