@<TRIPOS>MOLECULE
*****
 42 43 0 0 0
SMALL
GASTEIGER

@<TRIPOS>ATOM
      1 C           5.5060   -1.7842   -1.9326 C.3     1  UNL1       -0.0306
      2 C           3.9969   -1.7976   -2.0794 C.3     1  UNL1        0.0900
      3 O           3.4519   -0.8394   -1.1644 O.3     1  UNL1       -0.4604
      4 C           2.0868   -0.7440   -1.2079 C.2     1  UNL1        0.3578
      5 O           1.3775   -1.4261   -1.9347 O.2     1  UNL1       -0.2432
      6 C           1.6607    0.2493   -0.2568 C.ar    1  UNL1        0.1511
      7 N           2.5119    0.8912    0.6218 N.ar    1  UNL1       -0.3473
      8 C           1.8351    1.7858    1.4179 C.ar    1  UNL1        0.0492
      9 C           2.3014    2.6334    2.4294 C.ar    1  UNL1       -0.0377
     10 C           1.3657    3.4582    3.0625 C.ar    1  UNL1       -0.0598
     11 C           0.0213    3.4366    2.6956 C.ar    1  UNL1       -0.0610
     12 C          -0.4267    2.5820    1.6823 C.ar    1  UNL1       -0.0505
     13 C           0.4963    1.7379    1.0337 C.ar    1  UNL1        0.0259
     14 C           0.4088    0.7675   -0.0001 C.ar    1  UNL1        0.1046
     15 N          -0.7730    0.4603   -0.6795 N.2     1  UNL1       -0.2375
     16 C          -1.3854   -0.5420   -0.1388 C.2     1  UNL1        0.0846
     17 N          -2.5810   -1.0863   -0.5603 N.pl3   1  UNL1       -0.3216
     18 C          -3.2578   -0.5608   -1.7443 C.3     1  UNL1        0.0101
     19 C          -4.1037    0.6532   -1.3951 C.3     1  UNL1       -0.0493
     20 C          -3.1874   -2.2148    0.1356 C.3     1  UNL1        0.0101
     21 C          -3.8644   -1.7631    1.4200 C.3     1  UNL1       -0.0493
     22 H           5.7956   -2.0343   -0.9065 H       1  UNL1        0.0262
     23 H           5.9708   -2.5007   -2.6155 H       1  UNL1        0.0262
     24 H           5.9048   -0.7861   -2.1415 H       1  UNL1        0.0262
     25 H           3.7236   -1.5276   -3.1057 H       1  UNL1        0.0695
     26 H           3.6120   -2.7960   -1.8433 H       1  UNL1        0.0695
     27 H           3.5074    0.7211    0.6596 H       1  UNL1        0.1662
     28 H           3.3482    2.6598    2.7136 H       1  UNL1        0.0638
     29 H           1.6945    4.1320    3.8508 H       1  UNL1        0.0618
     30 H          -0.6880    4.0908    3.1965 H       1  UNL1        0.0618
     31 H          -1.4730    2.5669    1.3910 H       1  UNL1        0.0625
     32 H          -0.9834   -1.0657    0.7511 H       1  UNL1        0.0999
     33 H          -2.5238   -0.2913   -2.5131 H       1  UNL1        0.0461
     34 H          -3.8968   -1.3273   -2.1980 H       1  UNL1        0.0461
     35 H          -3.4989    1.4486   -0.9480 H       1  UNL1        0.0245
     36 H          -4.8936    0.3929   -0.6841 H       1  UNL1        0.0245
     37 H          -4.5796    1.0537   -2.2956 H       1  UNL1        0.0245
     38 H          -2.4179   -2.9603    0.3688 H       1  UNL1        0.0461
     39 H          -3.9226   -2.7213   -0.5002 H       1  UNL1        0.0461
     40 H          -4.6657   -1.0468    1.2154 H       1  UNL1        0.0245
     41 H          -3.1523   -1.2837    2.0997 H       1  UNL1        0.0245
     42 H          -4.3022   -2.6218    1.9387 H       1  UNL1        0.0245
@<TRIPOS>BOND
     1     1     2    1
     2     2     3    1
     3     3     4    1
     4     4     5    2
     5     4     6    1
     6     6     7   ar
     7     7     8   ar
     8     8     9   ar
     9     9    10   ar
    10    10    11   ar
    11    11    12   ar
    12    12    13   ar
    13    13    14   ar
    14    14    15    1
    15    15    16    2
    16    16    17    1
    17    17    18    1
    18    18    19    1
    19    17    20    1
    20    20    21    1
    21    14     6   ar
    22    13     8   ar
    23     1    22    1
    24     1    23    1
    25     1    24    1
    26     2    25    1
    27     2    26    1
    28     7    27    1
    29     9    28    1
    30    10    29    1
    31    11    30    1
    32    12    31    1
    33    16    32    1
    34    18    33    1
    35    18    34    1
    36    19    35    1
    37    19    36    1
    38    19    37    1
    39    20    38    1
    40    20    39    1
    41    21    40    1
    42    21    41    1
    43    21    42    1
