@<TRIPOS>MOLECULE
*****
 47 49 0 0 0
SMALL
GASTEIGER

@<TRIPOS>ATOM
      1 C           4.2637    4.0166    0.6571 C.3     1  UNL1       -0.0306
      2 C           2.9093    3.3656    0.8616 C.3     1  UNL1        0.0900
      3 O           2.9902    2.0148    0.3893 O.3     1  UNL1       -0.4604
      4 C           1.8385    1.3013    0.5452 C.2     1  UNL1        0.3575
      5 O           0.7986    1.7421    1.0162 O.2     1  UNL1       -0.2432
      6 C           2.0357   -0.0502    0.0808 C.ar    1  UNL1        0.1468
      7 N           3.2090   -0.5051   -0.4673 N.ar    1  UNL1       -0.3475
      8 C           3.1053   -1.8202   -0.8364 C.ar    1  UNL1        0.0489
      9 C           4.0561   -2.6456   -1.4524 C.ar    1  UNL1       -0.0377
     10 C           3.6872   -3.9573   -1.7498 C.ar    1  UNL1       -0.0598
     11 C           2.4124   -4.4171   -1.4472 C.ar    1  UNL1       -0.0610
     12 C           1.4770   -3.5755   -0.8289 C.ar    1  UNL1       -0.0508
     13 C           1.8182   -2.2461   -0.4935 C.ar    1  UNL1        0.0217
     14 C           1.1533   -1.1250    0.1119 C.ar    1  UNL1        0.0733
     15 N          -0.1193   -0.9725    0.6441 N.am    1  UNL1       -0.2821
     16 C          -1.0498   -1.9413    0.9581 C.2     1  UNL1        0.2313
     17 O          -0.8967   -3.1586    0.9348 O.2     1  UNL1       -0.2741
     18 C          -2.3588   -1.3352    1.4877 C.3     1  UNL1        0.0760
     19 N          -2.7192   -0.0885    0.7691 N.3     1  UNL1       -0.2940
     20 C          -3.8070    0.6120    1.4540 C.3     1  UNL1       -0.0006
     21 C          -4.0237    1.9998    0.8393 C.3     1  UNL1       -0.0402
     22 C          -3.8848    2.0178   -0.6847 C.3     1  UNL1       -0.0507
     23 C          -4.0559    0.6226   -1.2634 C.3     1  UNL1       -0.0402
     24 C          -3.0575   -0.3661   -0.6445 C.3     1  UNL1       -0.0006
     25 H           4.5284    4.0226   -0.4057 H       1  UNL1        0.0262
     26 H           4.2632    5.0454    1.0290 H       1  UNL1        0.0262
     27 H           5.0458    3.4533    1.1774 H       1  UNL1        0.0262
     28 H           2.1465    3.9117    0.2958 H       1  UNL1        0.0695
     29 H           2.6549    3.3699    1.9273 H       1  UNL1        0.0695
     30 H           4.0329    0.0661   -0.5951 H       1  UNL1        0.1661
     31 H           5.0482   -2.2817   -1.6995 H       1  UNL1        0.0638
     32 H           4.4025   -4.6231   -2.2301 H       1  UNL1        0.0618
     33 H           2.1297   -5.4378   -1.6923 H       1  UNL1        0.0618
     34 H           0.4867   -3.9679   -0.6267 H       1  UNL1        0.0625
     35 H          -0.4139   -0.0163    0.8575 H       1  UNL1        0.1549
     36 H          -2.1843   -1.1220    2.5501 H       1  UNL1        0.0522
     37 H          -3.1597   -2.0840    1.4136 H       1  UNL1        0.0522
     38 H          -3.5679    0.7517    2.5163 H       1  UNL1        0.0427
     39 H          -4.7360    0.0277    1.4137 H       1  UNL1        0.0427
     40 H          -5.0237    2.3537    1.1194 H       1  UNL1        0.0278
     41 H          -3.3107    2.7159    1.2640 H       1  UNL1        0.0278
     42 H          -4.6173    2.7083   -1.1210 H       1  UNL1        0.0266
     43 H          -2.8923    2.4020   -0.9541 H       1  UNL1        0.0266
     44 H          -5.0827    0.2772   -1.0754 H       1  UNL1        0.0278
     45 H          -3.9285    0.6450   -2.3483 H       1  UNL1        0.0278
     46 H          -2.1289   -0.3291   -1.2268 H       1  UNL1        0.0427
     47 H          -3.4745   -1.3772   -0.7729 H       1  UNL1        0.0427
@<TRIPOS>BOND
     1     1     2    1
     2     2     3    1
     3     3     4    1
     4     4     5    2
     5     4     6    1
     6     6     7   ar
     7     7     8   ar
     8     8     9   ar
     9     9    10   ar
    10    10    11   ar
    11    11    12   ar
    12    12    13   ar
    13    13    14   ar
    14    14    15    1
    15    15    16   am
    16    16    17    2
    17    16    18    1
    18    18    19    1
    19    19    20    1
    20    20    21    1
    21    21    22    1
    22    22    23    1
    23    23    24    1
    24    14     6   ar
    25    24    19    1
    26    13     8   ar
    27     1    25    1
    28     1    26    1
    29     1    27    1
    30     2    28    1
    31     2    29    1
    32     7    30    1
    33     9    31    1
    34    10    32    1
    35    11    33    1
    36    12    34    1
    37    15    35    1
    38    18    36    1
    39    18    37    1
    40    20    38    1
    41    20    39    1
    42    21    40    1
    43    21    41    1
    44    22    42    1
    45    22    43    1
    46    23    44    1
    47    23    45    1
    48    24    46    1
    49    24    47    1
