@<TRIPOS>MOLECULE
*****
 48 48 0 0 0
SMALL
GASTEIGER

@<TRIPOS>ATOM
      1 C          -6.1026    1.7234   -0.4066 C.3     1  UNL1       -0.0306
      2 C          -5.3902    1.3249    0.8722 C.3     1  UNL1        0.0900
      3 O          -4.1418    0.6877    0.5658 O.3     1  UNL1       -0.4604
      4 C          -3.0759    1.5162    0.3896 C.2     1  UNL1        0.3561
      5 O          -3.1439    2.7360    0.4796 O.2     1  UNL1       -0.2433
      6 C          -1.8740    0.7638    0.0435 C.ar    1  UNL1        0.1308
      7 C          -0.7451    1.2951   -0.5877 C.ar    1  UNL1       -0.0062
      8 C          -0.5704    2.7222   -1.0022 C.3     1  UNL1       -0.0368
      9 C           0.2100    0.2434   -0.7679 C.ar    1  UNL1        0.0608
     10 C           1.5311    0.3567   -1.3975 C.2     1  UNL1        0.2463
     11 O           1.7293    1.0320   -2.4008 O.2     1  UNL1       -0.2701
     12 N           2.5273   -0.3119   -0.7182 N.am    1  UNL1       -0.3065
     13 C           3.9422   -0.1037   -1.0138 C.3     1  UNL1        0.0439
     14 C           4.3314   -0.6653   -2.3810 C.3     1  UNL1       -0.0445
     15 C           4.8043   -0.7645    0.0779 C.3     1  UNL1        0.0654
     16 O           4.4086   -0.2570    1.3586 O.3     1  UNL1       -0.3812
     17 C           5.2064   -0.7977    2.4038 C.3     1  UNL1        0.0365
     18 C          -0.3672   -0.9148   -0.2572 C.ar    1  UNL1        0.0287
     19 C           0.1523   -2.3169   -0.2719 C.3     1  UNL1       -0.0235
     20 N          -1.5939   -0.5749    0.2922 N.ar    1  UNL1       -0.3383
     21 C          -2.4226   -1.4938    1.0679 C.3     1  UNL1        0.0209
     22 C          -2.4012   -1.1883    2.5573 C.3     1  UNL1       -0.0471
     23 H          -5.5174    2.4560   -0.9712 H       1  UNL1        0.0262
     24 H          -7.0829    2.1550   -0.1860 H       1  UNL1        0.0262
     25 H          -6.2378    0.8538   -1.0581 H       1  UNL1        0.0262
     26 H          -5.9957    0.5927    1.4164 H       1  UNL1        0.0695
     27 H          -5.2495    2.1826    1.5398 H       1  UNL1        0.0695
     28 H           0.4146    2.9159   -1.4331 H       1  UNL1        0.0278
     29 H          -0.6753    3.3857   -0.1376 H       1  UNL1        0.0278
     30 H          -1.3228    2.9952   -1.7491 H       1  UNL1        0.0278
     31 H           2.3135   -0.5047    0.2543 H       1  UNL1        0.1494
     32 H           4.1102    0.9802   -0.9976 H       1  UNL1        0.0518
     33 H           4.1052   -1.7354   -2.4458 H       1  UNL1        0.0248
     34 H           5.4025   -0.5306   -2.5657 H       1  UNL1        0.0248
     35 H           3.7937   -0.1677   -3.1932 H       1  UNL1        0.0248
     36 H           5.8639   -0.5412   -0.0931 H       1  UNL1        0.0578
     37 H           4.6617   -1.8521    0.0711 H       1  UNL1        0.0578
     38 H           5.1038   -1.8865    2.4395 H       1  UNL1        0.0523
     39 H           6.2562   -0.5216    2.2660 H       1  UNL1        0.0523
     40 H           4.8575   -0.3824    3.3530 H       1  UNL1        0.0523
     41 H          -0.6064   -3.0109   -0.6481 H       1  UNL1        0.0292
     42 H           0.4495   -2.6245    0.7356 H       1  UNL1        0.0292
     43 H           1.0178   -2.4265   -0.9309 H       1  UNL1        0.0292
     44 H          -3.4337   -1.4860    0.6546 H       1  UNL1        0.0489
     45 H          -2.0590   -2.5136    0.9187 H       1  UNL1        0.0489
     46 H          -1.3806   -1.2409    2.9513 H       1  UNL1        0.0247
     47 H          -2.7901   -0.1896    2.7765 H       1  UNL1        0.0247
     48 H          -3.0133   -1.9153    3.1002 H       1  UNL1        0.0247
@<TRIPOS>BOND
     1     1     2    1
     2     2     3    1
     3     3     4    1
     4     4     5    2
     5     4     6    1
     6     6     7   ar
     7     7     8    1
     8     7     9   ar
     9     9    10    1
    10    10    11    2
    11    10    12   am
    12    12    13    1
    13    13    14    1
    14    13    15    1
    15    15    16    1
    16    16    17    1
    17     9    18   ar
    18    18    19    1
    19    18    20   ar
    20    20    21    1
    21    21    22    1
    22    20     6   ar
    23     1    23    1
    24     1    24    1
    25     1    25    1
    26     2    26    1
    27     2    27    1
    28     8    28    1
    29     8    29    1
    30     8    30    1
    31    12    31    1
    32    13    32    1
    33    14    33    1
    34    14    34    1
    35    14    35    1
    36    15    36    1
    37    15    37    1
    38    17    38    1
    39    17    39    1
    40    17    40    1
    41    19    41    1
    42    19    42    1
    43    19    43    1
    44    21    44    1
    45    21    45    1
    46    22    46    1
    47    22    47    1
    48    22    48    1
