@<TRIPOS>MOLECULE
*****
 35 37 0 0 0
SMALL
GASTEIGER

@<TRIPOS>ATOM
      1 C           4.7780   -0.8707    0.1467 C.3     1  UNL1       -0.0306
      2 C           3.3938   -1.4365    0.3977 C.3     1  UNL1        0.0900
      3 O           2.4351   -0.4204    0.0841 O.3     1  UNL1       -0.4614
      4 C           1.1339   -0.7924    0.2685 C.2     1  UNL1        0.3418
      5 O           0.8099   -1.9064    0.6645 O.2     1  UNL1       -0.2449
      6 C           0.1714    0.2644   -0.0565 C.ar    1  UNL1        0.0918
      7 C          -1.2635    0.1577   -0.0076 C.ar    1  UNL1        0.0146
      8 C          -2.1222   -0.9667    0.3234 C.ar    1  UNL1       -0.0156
      9 C          -2.0849   -2.1352   -0.4469 C.ar    1  UNL1       -0.0526
     10 C          -2.9202   -3.2115   -0.1352 C.ar    1  UNL1       -0.0428
     11 C          -3.7955   -3.1182    0.9451 C.ar    1  UNL1        0.0410
     12 CL         -4.8255   -4.4425    1.3276 Cl      1  UNL1       -0.0835
     13 C          -3.8438   -1.9589    1.7172 C.ar    1  UNL1       -0.0428
     14 C          -3.0081   -0.8829    1.4059 C.ar    1  UNL1       -0.0526
     15 C          -1.7928    1.3799   -0.3685 C.ar    1  UNL1        0.0183
     16 N          -0.7634    2.2407   -0.6438 N.ar    1  UNL1       -0.3216
     17 C          -0.8580    3.5727   -1.0475 C.ar    1  UNL1        0.0098
     18 C           0.2610    4.2777   -1.2739 C.ar    1  UNL1       -0.0452
     19 C           1.5427    3.6246   -1.0882 C.ar    1  UNL1       -0.0584
     20 C           1.6327    2.3382   -0.6990 C.ar    1  UNL1       -0.0370
     21 C           0.4454    1.5736   -0.4568 C.ar    1  UNL1        0.0606
     22 H           5.5496   -1.6119    0.3725 H       1  UNL1        0.0262
     23 H           4.9489    0.0176    0.7640 H       1  UNL1        0.0262
     24 H           4.8828   -0.5574   -0.8973 H       1  UNL1        0.0262
     25 H           3.2305   -2.3105   -0.2427 H       1  UNL1        0.0695
     26 H           3.2981   -1.7247    1.4505 H       1  UNL1        0.0695
     27 H          -1.4019   -2.2186   -1.2889 H       1  UNL1        0.0624
     28 H          -2.8779   -4.1162   -0.7351 H       1  UNL1        0.0632
     29 H          -4.5238   -1.8867    2.5613 H       1  UNL1        0.0632
     30 H          -3.0464    0.0155    2.0175 H       1  UNL1        0.0624
     31 H          -2.8207    1.7049   -0.4621 H       1  UNL1        0.0819
     32 H          -1.8501    3.9897   -1.1635 H       1  UNL1        0.0813
     33 H           0.2351    5.3147   -1.5889 H       1  UNL1        0.0632
     34 H           2.4390    4.2091   -1.2733 H       1  UNL1        0.0619
     35 H           2.6108    1.8871   -0.5706 H       1  UNL1        0.0638
@<TRIPOS>BOND
     1     1     2    1
     2     2     3    1
     3     3     4    1
     4     4     5    2
     5     4     6    1
     6     6     7   ar
     7     7     8    1
     8     8     9   ar
     9     9    10   ar
    10    10    11   ar
    11    11    12    1
    12    11    13   ar
    13    13    14   ar
    14     7    15   ar
    15    15    16   ar
    16    16    17   ar
    17    17    18   ar
    18    18    19   ar
    19    19    20   ar
    20    20    21   ar
    21    21     6   ar
    22    14     8   ar
    23    21    16   ar
    24     1    22    1
    25     1    23    1
    26     1    24    1
    27     2    25    1
    28     2    26    1
    29     9    27    1
    30    10    28    1
    31    13    29    1
    32    14    30    1
    33    15    31    1
    34    17    32    1
    35    18    33    1
    36    19    34    1
    37    20    35    1
