@<TRIPOS>MOLECULE
*****
 36 41 0 0 0
SMALL
GASTEIGER

@<TRIPOS>ATOM
      1 SI         -5.7763   -0.0232   -0.7539 Si      1  UNL1        0.0000
      2 C          -6.9369    1.0493    0.2655 C.2     1  UNL1        0.0000
      3 C          -6.2696    1.6999    1.2359 C.2     1  UNL1        0.0000
      4 C          -4.8377    1.4389    1.2883 C.2     1  UNL1        0.0000
      5 C          -4.3731    0.5800    0.3567 C.2     1  UNL1        0.0000
      6 C          -3.0258    0.1648    0.2074 C.ar    1  UNL1        0.0000
      7 C          -2.5146   -1.1027   -0.0519 C.ar    1  UNL1        0.0000
      8 C          -1.0841   -1.1452   -0.1521 C.ar    1  UNL1        0.0000
      9 C          -0.1675   -2.1870   -0.3944 C.ar    1  UNL1        0.0000
     10 N           1.1825   -2.0366   -0.4570 N.ar    1  UNL1        0.0000
     11 C           1.7161   -0.8085   -0.2755 C.ar    1  UNL1        0.0000
     12 C           0.9417    0.3010   -0.0287 C.ar    1  UNL1        0.0000
     13 N           1.7196    1.4165    0.1172 N.ar    1  UNL1        0.0000
     14 C           3.0505    1.0645   -0.0328 C.ar    1  UNL1        0.0000
     15 C           4.2491    1.8287    0.0231 C.ar    1  UNL1        0.0000
     16 C           5.5109    1.2146   -0.1686 C.ar    1  UNL1        0.0000
     17 C           5.4086   -0.1522   -0.4031 C.ar    1  UNL1        0.0000
     18 C           6.4438   -1.0281   -0.6260 C.ar    1  UNL1        0.0000
     19 O           5.9556   -2.3015   -0.8186 O.2     1  UNL1        0.0000
     20 C           4.5850   -2.2404   -0.7173 C.ar    1  UNL1        0.0000
     21 C           4.2585   -0.9469   -0.4675 C.ar    1  UNL1        0.0000
     22 C           3.0127   -0.3072   -0.2725 C.ar    1  UNL1        0.0000
     23 C          -0.5779    0.1192    0.0390 C.ar    1  UNL1        0.0000
     24 S          -1.7294    1.3074    0.3272 S.2     1  UNL1        0.0000
     25 H          -5.6617    0.4554   -2.1543 H       1  UNL1        0.0000
     26 H          -6.0548   -1.4723   -0.5847 H       1  UNL1        0.0000
     27 H          -7.9934    1.1012    0.0550 H       1  UNL1        0.0000
     28 H          -6.7378    2.3742    1.9429 H       1  UNL1        0.0000
     29 H          -4.2288    1.9151    2.0477 H       1  UNL1        0.0000
     30 H          -3.1398   -1.9819   -0.1565 H       1  UNL1        0.0000
     31 H          -0.5139   -3.2054   -0.5503 H       1  UNL1        0.0000
     32 H           1.3777    2.3489    0.3042 H       1  UNL1        0.0000
     33 H           4.2028    2.8987    0.2150 H       1  UNL1        0.0000
     34 H           6.4400    1.7679   -0.1322 H       1  UNL1        0.0000
     35 H           7.5192   -0.9375   -0.6809 H       1  UNL1        0.0000
     36 H           4.0488   -3.1694   -0.8459 H       1  UNL1        0.0000
@<TRIPOS>BOND
     1     1     2    1
     2     2     3    2
     3     3     4    1
     4     4     5    2
     5     5     6    1
     6     6     7   ar
     7     7     8   ar
     8     8     9   ar
     9     9    10   ar
    10    10    11   ar
    11    11    12   ar
    12    12    13   ar
    13    13    14   ar
    14    14    15   ar
    15    15    16   ar
    16    16    17   ar
    17    17    18   ar
    18    18    19   ar
    19    19    20   ar
    20    20    21   ar
    21    21    22   ar
    22    12    23   ar
    23    23    24   ar
    24     5     1    1
    25    24     6   ar
    26    23     8   ar
    27    22    11   ar
    28    22    14   ar
    29    21    17   ar
    30     1    25    1
    31     1    26    1
    32     2    27    1
    33     3    28    1
    34     4    29    1
    35     7    30    1
    36     9    31    1
    37    13    32    1
    38    15    33    1
    39    16    34    1
    40    18    35    1
    41    20    36    1
