@<TRIPOS>MOLECULE
*****
 37 39 0 0 0
SMALL
GASTEIGER

@<TRIPOS>ATOM
      1 C          -2.7808   -2.7942    1.2236 C.3     1  UNL1       -0.0306
      2 C          -1.4087   -2.6267    1.8493 C.3     1  UNL1        0.0900
      3 O          -0.5610   -1.8559    0.9845 O.3     1  UNL1       -0.4604
      4 C          -0.6520   -0.5018    1.1144 C.2     1  UNL1        0.3583
      5 O          -1.3912    0.0628    1.9087 O.2     1  UNL1       -0.2432
      6 C           0.1991    0.1415    0.1545 C.ar    1  UNL1        0.1587
      7 C          -0.0274    1.3020   -0.5750 C.ar    1  UNL1        0.1041
      8 C          -1.2242    2.1292   -0.5805 C.ar    1  UNL1        0.0027
      9 C          -1.0872    3.5243   -0.5850 C.ar    1  UNL1       -0.0525
     10 C          -2.2129    4.3509   -0.6082 C.ar    1  UNL1       -0.0611
     11 C          -3.4876    3.7895   -0.6377 C.ar    1  UNL1       -0.0617
     12 C          -3.6368    2.4038   -0.6517 C.ar    1  UNL1       -0.0611
     13 C          -2.5103    1.5763   -0.6296 C.ar    1  UNL1       -0.0525
     14 N           1.0578    1.6249   -1.3564 N.ar    1  UNL1       -0.2270
     15 C           1.9410    0.6810   -1.1350 C.ar    1  UNL1        0.1389
     16 C           3.2456    0.4943   -1.6694 C.ar    1  UNL1       -0.0185
     17 C           3.9998   -0.5407   -1.2559 C.ar    1  UNL1       -0.0540
     18 C           3.5145   -1.4887   -0.2585 C.ar    1  UNL1       -0.0338
     19 C           4.4296   -2.5976    0.1574 C.3     1  UNL1       -0.0383
     20 C           2.2736   -1.3162    0.2372 C.ar    1  UNL1        0.0149
     21 N           1.4810   -0.2492   -0.2059 N.ar    1  UNL1       -0.2933
     22 H          -2.6969   -3.2425    0.2282 H       1  UNL1        0.0262
     23 H          -3.4154   -3.4316    1.8457 H       1  UNL1        0.0262
     24 H          -3.2761   -1.8265    1.0958 H       1  UNL1        0.0262
     25 H          -1.4727   -2.1797    2.8479 H       1  UNL1        0.0695
     26 H          -0.9363   -3.6074    1.9668 H       1  UNL1        0.0695
     27 H          -0.0955    3.9723   -0.5715 H       1  UNL1        0.0624
     28 H          -2.0916    5.4306   -0.6063 H       1  UNL1        0.0618
     29 H          -4.3642    4.4316   -0.6554 H       1  UNL1        0.0618
     30 H          -4.6305    1.9649   -0.6826 H       1  UNL1        0.0618
     31 H          -2.6548    0.5002   -0.6601 H       1  UNL1        0.0624
     32 H           3.6071    1.2025   -2.4064 H       1  UNL1        0.0654
     33 H           4.9971   -0.6832   -1.6629 H       1  UNL1        0.0622
     34 H           5.3513   -2.1943    0.5899 H       1  UNL1        0.0278
     35 H           4.6934   -3.2219   -0.7029 H       1  UNL1        0.0278
     36 H           3.9658   -3.2458    0.9086 H       1  UNL1        0.0278
     37 H           1.8574   -1.9787    0.9844 H       1  UNL1        0.0816
@<TRIPOS>BOND
     1     1     2    1
     2     2     3    1
     3     3     4    1
     4     4     5    2
     5     4     6    1
     6     6     7   ar
     7     7     8    1
     8     8     9   ar
     9     9    10   ar
    10    10    11   ar
    11    11    12   ar
    12    12    13   ar
    13     7    14   ar
    14    14    15   ar
    15    15    16   ar
    16    16    17   ar
    17    17    18   ar
    18    18    19    1
    19    18    20   ar
    20    20    21   ar
    21    21     6   ar
    22    13     8   ar
    23    21    15   ar
    24     1    22    1
    25     1    23    1
    26     1    24    1
    27     2    25    1
    28     2    26    1
    29     9    27    1
    30    10    28    1
    31    11    29    1
    32    12    30    1
    33    13    31    1
    34    16    32    1
    35    17    33    1
    36    19    34    1
    37    19    35    1
    38    19    36    1
    39    20    37    1
