@<TRIPOS>MOLECULE
*****
 35 37 0 0 0
SMALL
GASTEIGER

@<TRIPOS>ATOM
      1 C           7.0378   -0.8646   -0.4070 C.3     1  UNL1       -0.0306
      2 C           6.3838    0.4511   -0.7844 C.3     1  UNL1        0.0900
      3 O           4.9631    0.3693   -0.5929 O.3     1  UNL1       -0.4611
      4 C           4.5066    0.6610    0.6507 C.2     1  UNL1        0.3461
      5 O           5.2116    0.9791    1.5992 O.2     1  UNL1       -0.2444
      6 C           3.0130    0.5469    0.7422 C.ar    1  UNL1        0.1046
      7 C           2.4797    0.8323    1.9389 C.ar    1  UNL1        0.0255
      8 C           1.0440    0.7898    2.2702 C.ar    1  UNL1        0.2749
      9 O           0.6236    1.0638    3.3868 O.2     1  UNL1       -0.2657
     10 N           0.1913    0.4188    1.2358 N.ar    1  UNL1       -0.1698
     11 N          -1.1532    0.3382    1.4012 N.ar    1  UNL1       -0.1413
     12 C          -1.5748   -0.0430    0.1854 C.ar    1  UNL1        0.1829
     13 C          -2.9759   -0.2713   -0.1571 C.ar    1  UNL1        0.0209
     14 C          -3.3326   -0.6713   -1.4521 C.ar    1  UNL1       -0.0507
     15 C          -4.6723   -0.8921   -1.7876 C.ar    1  UNL1       -0.0582
     16 C          -5.6815   -0.7066   -0.8367 C.ar    1  UNL1       -0.0504
     17 C          -7.1150   -0.9758   -1.1866 C.3     1  UNL1       -0.0397
     18 C          -5.3289   -0.3216    0.4613 C.ar    1  UNL1       -0.0582
     19 C          -3.9890   -0.1010    0.7963 C.ar    1  UNL1       -0.0507
     20 N          -0.5598   -0.2049   -0.7319 N.ar    1  UNL1       -0.2000
     21 C           0.5174    0.0889   -0.0481 C.ar    1  UNL1        0.1999
     22 S           2.1248    0.0689   -0.6606 S.2     1  UNL1       -0.0425
     23 H           8.1131   -0.8338   -0.6041 H       1  UNL1        0.0262
     24 H           6.8830   -1.0907    0.6527 H       1  UNL1        0.0262
     25 H           6.5976   -1.6899   -0.9763 H       1  UNL1        0.0262
     26 H           6.5518    0.6548   -1.8469 H       1  UNL1        0.0695
     27 H           6.8136    1.2890   -0.2236 H       1  UNL1        0.0695
     28 H           3.1010    1.1273    2.7822 H       1  UNL1        0.0686
     29 H          -2.5671   -0.8173   -2.2119 H       1  UNL1        0.0625
     30 H          -4.9202   -1.2091   -2.7982 H       1  UNL1        0.0620
     31 H          -7.3574   -2.0247   -0.9905 H       1  UNL1        0.0278
     32 H          -7.7864   -0.3411   -0.5987 H       1  UNL1        0.0278
     33 H          -7.3065   -0.7594   -2.2429 H       1  UNL1        0.0278
     34 H          -6.0938   -0.1889    1.2233 H       1  UNL1        0.0620
     35 H          -3.7424    0.2034    1.8121 H       1  UNL1        0.0625
@<TRIPOS>BOND
     1     1     2    1
     2     2     3    1
     3     3     4    1
     4     4     5    2
     5     4     6    1
     6     6     7   ar
     7     7     8   ar
     8     8     9    2
     9     8    10   ar
    10    10    11   ar
    11    11    12   ar
    12    12    13    1
    13    13    14   ar
    14    14    15   ar
    15    15    16   ar
    16    16    17    1
    17    16    18   ar
    18    18    19   ar
    19    12    20   ar
    20    20    21   ar
    21    21    22   ar
    22    22     6   ar
    23    21    10   ar
    24    19    13   ar
    25     1    23    1
    26     1    24    1
    27     1    25    1
    28     2    26    1
    29     2    27    1
    30     7    28    1
    31    14    29    1
    32    15    30    1
    33    17    31    1
    34    17    32    1
    35    17    33    1
    36    18    34    1
    37    19    35    1
