@<TRIPOS>MOLECULE
*****
 39 41 0 0 0
SMALL
GASTEIGER

@<TRIPOS>ATOM
      1 C          -4.7990    0.9989   -2.3536 C.3     1  UNL1       -0.0306
      2 C          -3.3547    0.5633   -2.2011 C.3     1  UNL1        0.0900
      3 O          -3.1152    0.2882   -0.8173 O.3     1  UNL1       -0.4604
      4 C          -1.8417   -0.1060   -0.5347 C.2     1  UNL1        0.3559
      5 O          -0.9576   -0.2452   -1.3708 O.2     1  UNL1       -0.2433
      6 C          -1.7001   -0.3442    0.8914 C.ar    1  UNL1        0.1289
      7 C          -2.6803   -0.2513    1.8740 C.ar    1  UNL1       -0.0154
      8 C          -2.0533   -0.5589    3.1106 C.ar    1  UNL1        0.0378
      9 S          -2.4598   -0.6902    4.7884 S.2     1  UNL1       -0.0951
     10 C          -0.8261   -1.0881    5.1479 C.ar    1  UNL1       -0.0217
     11 C           0.0014   -1.1294    4.0459 C.ar    1  UNL1       -0.0305
     12 C          -0.7396   -0.8231    2.8700 C.ar    1  UNL1        0.0572
     13 N          -0.5155   -0.7045    1.5137 N.ar    1  UNL1       -0.3254
     14 C           0.7777   -0.9556    0.8920 C.3     1  UNL1        0.1004
     15 C           1.5509    0.3226    0.6025 C.2     1  UNL1        0.2354
     16 O           1.4491    1.3200    1.3205 O.2     1  UNL1       -0.2736
     17 N           2.4291    0.3007   -0.4625 N.am    1  UNL1       -0.3000
     18 C           3.2498    1.4559   -0.7804 C.3     1  UNL1        0.0148
     19 C           4.2667    0.9282   -1.7803 C.3     1  UNL1       -0.0357
     20 C           3.4800   -0.1409   -2.5266 C.3     1  UNL1       -0.0357
     21 C           2.6172   -0.7640   -1.4365 C.3     1  UNL1        0.0148
     22 H          -5.4772    0.2157   -1.9990 H       1  UNL1        0.0262
     23 H          -5.0314    1.2211   -3.3988 H       1  UNL1        0.0262
     24 H          -4.9985    1.8902   -1.7495 H       1  UNL1        0.0262
     25 H          -2.6892    1.3650   -2.5404 H       1  UNL1        0.0695
     26 H          -3.1768   -0.3406   -2.7943 H       1  UNL1        0.0695
     27 H          -3.7192    0.0116    1.7239 H       1  UNL1        0.0652
     28 H          -0.5511   -1.2717    6.1776 H       1  UNL1        0.0694
     29 H           1.0587   -1.3547    4.0897 H       1  UNL1        0.0644
     30 H           1.3774   -1.5684    1.5737 H       1  UNL1        0.0588
     31 H           0.5913   -1.5578    0.0020 H       1  UNL1        0.0588
     32 H           2.6013    2.2155   -1.2312 H       1  UNL1        0.0464
     33 H           3.7138    1.8713    0.1192 H       1  UNL1        0.0464
     34 H           5.1095    0.4661   -1.2522 H       1  UNL1        0.0281
     35 H           4.6582    1.7096   -2.4371 H       1  UNL1        0.0281
     36 H           2.8420    0.3319   -3.2832 H       1  UNL1        0.0281
     37 H           4.1189   -0.8728   -3.0281 H       1  UNL1        0.0281
     38 H           3.1319   -1.5907   -0.9357 H       1  UNL1        0.0464
     39 H           1.6613   -1.1178   -1.8298 H       1  UNL1        0.0464
@<TRIPOS>BOND
     1     1     2    1
     2     2     3    1
     3     3     4    1
     4     4     5    2
     5     4     6    1
     6     6     7   ar
     7     7     8   ar
     8     8     9   ar
     9     9    10   ar
    10    10    11   ar
    11    11    12   ar
    12    12    13   ar
    13    13    14    1
    14    14    15    1
    15    15    16    2
    16    15    17   am
    17    17    18    1
    18    18    19    1
    19    19    20    1
    20    20    21    1
    21    13     6   ar
    22    21    17    1
    23    12     8   ar
    24     1    22    1
    25     1    23    1
    26     1    24    1
    27     2    25    1
    28     2    26    1
    29     7    27    1
    30    10    28    1
    31    11    29    1
    32    14    30    1
    33    14    31    1
    34    18    32    1
    35    18    33    1
    36    19    34    1
    37    19    35    1
    38    20    36    1
    39    20    37    1
    40    21    38    1
    41    21    39    1
