@<TRIPOS>MOLECULE
*****
 37 38 0 0 0
SMALL
GASTEIGER

@<TRIPOS>ATOM
      1 C           6.8270    1.6614    1.3163 C.3     1  UNL1       -0.0306
      2 C           6.2150    0.3977    1.8909 C.3     1  UNL1        0.0900
      3 O           4.8418    0.2865    1.4888 O.3     1  UNL1       -0.4614
      4 C           4.6232   -0.3187    0.2955 C.2     1  UNL1        0.3392
      5 O           5.4794   -0.7624   -0.4534 O.2     1  UNL1       -0.2450
      6 C           3.1666   -0.3757   -0.0047 C.ar    1  UNL1        0.0591
      7 C           2.7596   -0.9771   -1.2009 C.ar    1  UNL1       -0.0460
      8 C           1.4011   -1.0540   -1.5275 C.ar    1  UNL1       -0.0397
      9 C           0.4275   -0.5368   -0.6638 C.ar    1  UNL1        0.0348
     10 N          -0.9184   -0.6452   -1.0707 N.am    1  UNL1       -0.2692
     11 C          -2.0524   -0.3577   -0.3228 C.2     1  UNL1        0.3081
     12 O          -2.0523   -0.0513    0.8616 O.2     1  UNL1       -0.2522
     13 N          -3.1861   -0.4688   -1.1167 N.am    1  UNL1       -0.2692
     14 C          -4.5324   -0.3668   -0.7087 C.ar    1  UNL1        0.0349
     15 C          -5.5061   -0.3324   -1.7186 C.ar    1  UNL1       -0.0377
     16 C          -6.8627   -0.2422   -1.3960 C.ar    1  UNL1       -0.0247
     17 C          -7.2465   -0.1916   -0.0630 C.ar    1  UNL1        0.1235
     18 F          -8.5464   -0.1064    0.2474 F       1  UNL1       -0.2055
     19 C          -6.2992   -0.2323    0.9507 C.ar    1  UNL1       -0.0247
     20 C          -4.9412   -0.3225    0.6279 C.ar    1  UNL1       -0.0377
     21 C           0.8370    0.0702    0.5252 C.ar    1  UNL1       -0.0397
     22 C           2.1967    0.1492    0.8561 C.ar    1  UNL1       -0.0460
     23 H           6.2440    2.5398    1.6123 H       1  UNL1        0.0262
     24 H           6.8288    1.6346    0.2220 H       1  UNL1        0.0262
     25 H           7.8561    1.7869    1.6642 H       1  UNL1        0.0262
     26 H           6.2248    0.4483    2.9846 H       1  UNL1        0.0695
     27 H           6.7879   -0.4918    1.6046 H       1  UNL1        0.0695
     28 H           3.4987   -1.3894   -1.8857 H       1  UNL1        0.0626
     29 H           1.1219   -1.5281   -2.4651 H       1  UNL1        0.0636
     30 H          -1.0781   -1.1253   -1.9428 H       1  UNL1        0.1564
     31 H          -3.0258   -0.4718   -2.1121 H       1  UNL1        0.1564
     32 H          -5.2249   -0.3713   -2.7676 H       1  UNL1        0.0637
     33 H          -7.6190   -0.2115   -2.1736 H       1  UNL1        0.0647
     34 H          -6.6169   -0.1958    1.9879 H       1  UNL1        0.0647
     35 H          -4.2279   -0.3635    1.4456 H       1  UNL1        0.0637
     36 H           0.1225    0.5019    1.2203 H       1  UNL1        0.0636
     37 H           2.4767    0.6274    1.7919 H       1  UNL1        0.0626
@<TRIPOS>BOND
     1     1     2    1
     2     2     3    1
     3     3     4    1
     4     4     5    2
     5     4     6    1
     6     6     7   ar
     7     7     8   ar
     8     8     9   ar
     9     9    10    1
    10    10    11   am
    11    11    12    2
    12    11    13   am
    13    13    14    1
    14    14    15   ar
    15    15    16   ar
    16    16    17   ar
    17    17    18    1
    18    17    19   ar
    19    19    20   ar
    20     9    21   ar
    21    21    22   ar
    22    22     6   ar
    23    20    14   ar
    24     1    23    1
    25     1    24    1
    26     1    25    1
    27     2    26    1
    28     2    27    1
    29     7    28    1
    30     8    29    1
    31    10    30    1
    32    13    31    1
    33    15    32    1
    34    16    33    1
    35    19    34    1
    36    20    35    1
    37    21    36    1
    38    22    37    1
