@<TRIPOS>MOLECULE
*****
 36 37 0 0 0
SMALL
GASTEIGER

@<TRIPOS>ATOM
      1 C           4.0450    2.3154    1.5563 C.3     1  UNL1       -0.0306
      2 C           3.9442    1.8954    0.1020 C.3     1  UNL1        0.0900
      3 O           3.5232    0.5261    0.0106 O.3     1  UNL1       -0.4614
      4 C           2.1825    0.3126    0.0239 C.2     1  UNL1        0.3410
      5 O           1.3303    1.1862    0.1105 O.2     1  UNL1       -0.2449
      6 C           1.8685   -1.1483   -0.0772 C.ar    1  UNL1        0.0800
      7 C           2.9164   -2.0854   -0.1755 C.ar    1  UNL1       -0.0460
      8 C           2.6456   -3.4487   -0.2702 C.ar    1  UNL1       -0.0609
      9 C           1.3290   -3.8893   -0.2679 C.ar    1  UNL1       -0.0600
     10 C           0.2801   -2.9698   -0.1709 C.ar    1  UNL1       -0.0398
     11 C           0.5175   -1.5871   -0.0732 C.ar    1  UNL1        0.0450
     12 N          -0.5437   -0.6579    0.0237 N.pl3   1  UNL1       -0.3195
     13 C          -1.8986   -0.8568    0.0528 C.2     1  UNL1        0.0003
     14 C          -2.8407    0.0867    0.1524 C.2     1  UNL1        0.0088
     15 C          -2.7081    1.5734    0.2262 C.3     1  UNL1       -0.0228
     16 C          -4.0504    2.0688   -0.3092 C.3     1  UNL1       -0.0419
     17 C          -5.0937    1.0470    0.1394 C.3     1  UNL1        0.0105
     18 C          -4.2969   -0.2258    0.1533 C.2     1  UNL1        0.1604
     19 O          -4.7673   -1.3514    0.1949 O.2     1  UNL1       -0.2924
     20 H           3.0694    2.2611    2.0496 H       1  UNL1        0.0262
     21 H           4.7164    1.6459    2.1039 H       1  UNL1        0.0262
     22 H           4.4217    3.3387    1.6392 H       1  UNL1        0.0262
     23 H           4.9307    1.9584   -0.3687 H       1  UNL1        0.0695
     24 H           3.2757    2.5563   -0.4618 H       1  UNL1        0.0695
     25 H           3.9560   -1.7664   -0.1795 H       1  UNL1        0.0626
     26 H           3.4608   -4.1641   -0.3455 H       1  UNL1        0.0618
     27 H           1.1094   -4.9519   -0.3416 H       1  UNL1        0.0618
     28 H          -0.7310   -3.3659   -0.1738 H       1  UNL1        0.0636
     29 H          -0.2335    0.3173    0.0937 H       1  UNL1        0.1516
     30 H          -2.2170   -1.8940   -0.0086 H       1  UNL1        0.0785
     31 H          -1.8791    1.9622   -0.3721 H       1  UNL1        0.0315
     32 H          -2.5743    1.8852    1.2680 H       1  UNL1        0.0315
     33 H          -4.0193    2.1058   -1.4062 H       1  UNL1        0.0273
     34 H          -4.2876    3.0766    0.0458 H       1  UNL1        0.0273
     35 H          -5.4570    1.2563    1.1496 H       1  UNL1        0.0345
     36 H          -5.9244    0.9875   -0.5674 H       1  UNL1        0.0345
@<TRIPOS>BOND
     1     1     2    1
     2     2     3    1
     3     3     4    1
     4     4     5    2
     5     4     6    1
     6     6     7   ar
     7     7     8   ar
     8     8     9   ar
     9     9    10   ar
    10    10    11   ar
    11    11    12    1
    12    12    13    1
    13    13    14    2
    14    14    15    1
    15    15    16    1
    16    16    17    1
    17    17    18    1
    18    18    19    2
    19    11     6   ar
    20    18    14    1
    21     1    20    1
    22     1    21    1
    23     1    22    1
    24     2    23    1
    25     2    24    1
    26     7    25    1
    27     8    26    1
    28     9    27    1
    29    10    28    1
    30    12    29    1
    31    13    30    1
    32    15    31    1
    33    15    32    1
    34    16    33    1
    35    16    34    1
    36    17    35    1
    37    17    36    1
