@<TRIPOS>MOLECULE
*****
 41 43 0 0 0
SMALL
GASTEIGER

@<TRIPOS>ATOM
      1 C           5.6461    1.6304   -0.6294 C.3     1  UNL1       -0.0306
      2 C           4.4203    1.6651    0.2622 C.3     1  UNL1        0.0897
      3 O           3.4958    0.6773   -0.2107 O.3     1  UNL1       -0.4647
      4 C           2.3435    0.5947    0.5133 C.2     1  UNL1        0.3117
      5 O           2.0739    1.2904    1.4819 O.2     1  UNL1       -0.2505
      6 C           1.4425   -0.4705   -0.0711 C.3     1  UNL1        0.0722
      7 C           2.0878   -1.8579    0.0553 C.3     1  UNL1       -0.0372
      8 C           1.0542   -2.9726    0.2256 C.3     1  UNL1       -0.0363
      9 C          -0.2355   -2.6443   -0.5178 C.3     1  UNL1        0.0150
     10 N          -0.8592   -1.4054   -0.0046 N.pl3   1  UNL1       -0.2975
     11 C          -2.0165   -1.5936    0.7167 C.ar    1  UNL1        0.2423
     12 N          -2.3137   -2.6259    1.4823 N.ar    1  UNL1       -0.0918
     13 N          -3.4742   -2.3183    2.1314 N.ar    1  UNL1       -0.0210
     14 N          -3.9212   -1.1273    1.7725 N.ar    1  UNL1       -0.0376
     15 N          -3.0739   -0.6741    0.8105 N.ar    1  UNL1       -0.1806
     16 C          -3.3678    0.5109    0.0815 C.ar    1  UNL1        0.0706
     17 C          -4.3971    1.3547    0.5325 C.ar    1  UNL1       -0.0361
     18 C          -4.7111    2.5226   -0.1666 C.ar    1  UNL1       -0.0598
     19 C          -4.0115    2.8527   -1.3245 C.ar    1  UNL1       -0.0616
     20 C          -3.0023    2.0125   -1.7898 C.ar    1  UNL1       -0.0598
     21 C          -2.6822    0.8427   -1.0942 C.ar    1  UNL1       -0.0361
     22 C           0.0805   -0.4372    0.6224 C.3     1  UNL1        0.0278
     23 H           5.3717    1.8331   -1.6700 H       1  UNL1        0.0262
     24 H           6.1090    0.6382   -0.6098 H       1  UNL1        0.0262
     25 H           6.3836    2.3709   -0.3078 H       1  UNL1        0.0262
     26 H           3.9566    2.6568    0.2159 H       1  UNL1        0.0694
     27 H           4.7073    1.4384    1.2950 H       1  UNL1        0.0694
     28 H           1.2918   -0.2265   -1.1316 H       1  UNL1        0.0429
     29 H           2.7961   -1.8985    0.8923 H       1  UNL1        0.0274
     30 H           2.6808   -2.0487   -0.8485 H       1  UNL1        0.0274
     31 H           0.8392   -3.1105    1.2928 H       1  UNL1        0.0281
     32 H           1.4721   -3.9183   -0.1372 H       1  UNL1        0.0281
     33 H          -0.0153   -2.4935   -1.5822 H       1  UNL1        0.0464
     34 H          -0.9211   -3.4999   -0.4725 H       1  UNL1        0.0464
     35 H          -4.9625    1.1256    1.4345 H       1  UNL1        0.0639
     36 H          -5.5043    3.1732    0.1942 H       1  UNL1        0.0618
     37 H          -4.2589    3.7606   -1.8689 H       1  UNL1        0.0618
     38 H          -2.4681    2.2633   -2.7032 H       1  UNL1        0.0618
     39 H          -1.9135    0.2009   -1.5138 H       1  UNL1        0.0639
     40 H          -0.3408    0.5735    0.5607 H       1  UNL1        0.0473
     41 H           0.1978   -0.6655    1.6918 H       1  UNL1        0.0473
@<TRIPOS>BOND
     1     1     2    1
     2     2     3    1
     3     3     4    1
     4     4     5    2
     5     4     6    1
     6     6     7    1
     7     7     8    1
     8     8     9    1
     9     9    10    1
    10    10    11    1
    11    11    12   ar
    12    12    13   ar
    13    13    14   ar
    14    14    15   ar
    15    15    16    1
    16    16    17   ar
    17    17    18   ar
    18    18    19   ar
    19    19    20   ar
    20    20    21   ar
    21    10    22    1
    22    22     6    1
    23    15    11   ar
    24    21    16   ar
    25     1    23    1
    26     1    24    1
    27     1    25    1
    28     2    26    1
    29     2    27    1
    30     6    28    1
    31     7    29    1
    32     7    30    1
    33     8    31    1
    34     8    32    1
    35     9    33    1
    36     9    34    1
    37    17    35    1
    38    18    36    1
    39    19    37    1
    40    20    38    1
    41    21    39    1
    42    22    40    1
    43    22    41    1
