@<TRIPOS>MOLECULE
*****
 40 41 0 0 0
SMALL
GASTEIGER

@<TRIPOS>ATOM
      1 C           5.3981    1.3598    1.5605 C.3     1  UNL1       -0.0306
      2 C           4.0516    1.9725    1.2246 C.3     1  UNL1        0.0897
      3 O           3.4842    1.3220    0.0778 O.3     1  UNL1       -0.4647
      4 C           2.7554    0.1985    0.3318 C.2     1  UNL1        0.3103
      5 O           2.5650   -0.2849    1.4388 O.2     1  UNL1       -0.2505
      6 C           2.2129   -0.3666   -0.9697 C.3     1  UNL1        0.0593
      7 C           1.7391   -1.8157   -0.7804 C.3     1  UNL1       -0.0242
      8 C           0.2886   -1.8771   -0.3121 C.3     1  UNL1        0.0154
      9 N          -0.6171   -1.1877   -1.2316 N.am    1  UNL1       -0.3008
     10 C          -1.9948   -1.4094   -1.2779 C.2     1  UNL1        0.2258
     11 O          -2.6981   -0.8802   -2.1416 O.2     1  UNL1       -0.2747
     12 C          -2.5705   -2.3606   -0.2268 C.3     1  UNL1        0.0768
     13 S          -4.3630   -2.1664   -0.0099 S.3     1  UNL1       -0.0902
     14 C          -4.4072   -0.4895    0.4202 C.2     1  UNL1        0.1257
     15 N          -3.4418    0.1073    1.0381 N.2     1  UNL1       -0.2697
     16 C          -3.7909    1.5357    1.1839 C.3     1  UNL1        0.0508
     17 C          -5.3020    1.7038    1.1971 C.3     1  UNL1        0.0198
     18 S          -5.8537    0.4115    0.0734 S.3     1  UNL1       -0.0977
     19 C          -0.0306   -0.2215   -2.1569 C.3     1  UNL1        0.0154
     20 C           1.1064    0.5539   -1.5040 C.3     1  UNL1       -0.0242
     21 H           5.2934    0.3039    1.8291 H       1  UNL1        0.0262
     22 H           6.0669    1.4033    0.6947 H       1  UNL1        0.0262
     23 H           5.8670    1.8877    2.3958 H       1  UNL1        0.0262
     24 H           3.3688    1.9369    2.0813 H       1  UNL1        0.0694
     25 H           4.1823    3.0273    0.9615 H       1  UNL1        0.0694
     26 H           3.0530   -0.3947   -1.6765 H       1  UNL1        0.0414
     27 H           2.3820   -2.3583   -0.0776 H       1  UNL1        0.0288
     28 H           1.8202   -2.3402   -1.7418 H       1  UNL1        0.0288
     29 H          -0.0198   -2.9234   -0.2193 H       1  UNL1        0.0465
     30 H           0.1756   -1.4073    0.6713 H       1  UNL1        0.0465
     31 H          -2.3759   -3.3865   -0.5545 H       1  UNL1        0.0475
     32 H          -2.0918   -2.2068    0.7438 H       1  UNL1        0.0475
     33 H          -3.3371    2.0987    0.3585 H       1  UNL1        0.0517
     34 H          -3.3625    1.9246    2.1139 H       1  UNL1        0.0517
     35 H          -5.6136    2.6997    0.8723 H       1  UNL1        0.0398
     36 H          -5.7075    1.5059    2.1942 H       1  UNL1        0.0398
     37 H          -0.7919    0.4800   -2.5145 H       1  UNL1        0.0465
     38 H           0.3319   -0.7796   -3.0283 H       1  UNL1        0.0465
     39 H           1.5355    1.2572   -2.2280 H       1  UNL1        0.0288
     40 H           0.6919    1.1662   -0.6917 H       1  UNL1        0.0288
@<TRIPOS>BOND
     1     1     2    1
     2     2     3    1
     3     3     4    1
     4     4     5    2
     5     4     6    1
     6     6     7    1
     7     7     8    1
     8     8     9    1
     9     9    10   am
    10    10    11    2
    11    10    12    1
    12    12    13    1
    13    13    14    1
    14    14    15    2
    15    15    16    1
    16    16    17    1
    17    17    18    1
    18     9    19    1
    19    19    20    1
    20    20     6    1
    21    18    14    1
    22     1    21    1
    23     1    22    1
    24     1    23    1
    25     2    24    1
    26     2    25    1
    27     6    26    1
    28     7    27    1
    29     7    28    1
    30     8    29    1
    31     8    30    1
    32    12    31    1
    33    12    32    1
    34    16    33    1
    35    16    34    1
    36    17    35    1
    37    17    36    1
    38    19    37    1
    39    19    38    1
    40    20    39    1
    41    20    40    1
