@<TRIPOS>MOLECULE
*****
 38 39 0 0 0
SMALL
GASTEIGER

@<TRIPOS>ATOM
      1 C           6.4703    0.3171   -0.0429 C.3     1  UNL1       -0.0306
      2 C           5.9367   -1.0927    0.1301 C.3     1  UNL1        0.0900
      3 O           4.6844   -1.0665    0.8291 O.3     1  UNL1       -0.4614
      4 C           3.5750   -0.8770    0.0555 C.2     1  UNL1        0.3426
      5 O           3.5961   -0.7438   -1.1613 O.2     1  UNL1       -0.2448
      6 C           2.3582   -0.8643    0.8479 C.ar    1  UNL1        0.1006
      7 C           2.1961   -1.1234    2.2430 C.ar    1  UNL1       -0.0096
      8 C           0.8554   -1.0054    2.5142 C.ar    1  UNL1        0.0929
      9 O           0.1745   -0.6840    1.3884 O.2     1  UNL1       -0.4661
     10 C           1.0840   -0.5863    0.3748 C.ar    1  UNL1        0.1285
     11 C           0.5325   -0.2205   -0.9559 C.3     1  UNL1        0.0530
     12 S           0.6837    1.5684   -1.2799 S.3     1  UNL1       -0.1452
     13 C          -0.6107    2.1978   -0.1643 C.3     1  UNL1        0.0522
     14 C          -1.9729    1.8587   -0.6469 C.ar    1  UNL1        0.1158
     15 C          -2.7267    2.2652   -1.7276 C.ar    1  UNL1       -0.0190
     16 C          -3.9593    1.5757   -1.6355 C.ar    1  UNL1       -0.0090
     17 C          -3.8980    0.7871   -0.4993 C.ar    1  UNL1        0.2116
     18 C          -4.8385   -0.1251    0.1095 C.2     1  UNL1        0.3746
     19 O          -4.6657   -0.7669    1.1390 O.2     1  UNL1       -0.2415
     20 O          -5.9803   -0.1739   -0.6418 O.3     1  UNL1       -0.4623
     21 C          -6.9772   -1.0533   -0.1217 C.3     1  UNL1        0.0821
     22 O          -2.6802    0.9666    0.1027 O.2     1  UNL1       -0.4523
     23 H           6.5560    0.8173    0.9273 H       1  UNL1        0.0262
     24 H           5.7930    0.9219   -0.6540 H       1  UNL1        0.0262
     25 H           7.4537    0.3034   -0.5212 H       1  UNL1        0.0262
     26 H           5.8469   -1.6099   -0.8320 H       1  UNL1        0.0695
     27 H           6.6321   -1.6756    0.7430 H       1  UNL1        0.0695
     28 H           2.9695   -1.3740    2.9561 H       1  UNL1        0.0657
     29 H           0.2562   -1.1136    3.4080 H       1  UNL1        0.1029
     30 H          -0.5120   -0.5336   -1.0489 H       1  UNL1        0.0456
     31 H           1.0781   -0.7491   -1.7437 H       1  UNL1        0.0456
     32 H          -0.4418    1.8425    0.8560 H       1  UNL1        0.0456
     33 H          -0.5100    3.2883   -0.1334 H       1  UNL1        0.0456
     34 H          -2.4174    2.9674   -2.4900 H       1  UNL1        0.0652
     35 H          -4.7991    1.6407   -2.3141 H       1  UNL1        0.0658
     36 H          -7.8409   -1.0196   -0.7915 H       1  UNL1        0.0661
     37 H          -6.6040   -2.0819   -0.0909 H       1  UNL1        0.0661
     38 H          -7.2979   -0.7257    0.8722 H       1  UNL1        0.0661
@<TRIPOS>BOND
     1     1     2    1
     2     2     3    1
     3     3     4    1
     4     4     5    2
     5     4     6    1
     6     6     7   ar
     7     7     8   ar
     8     8     9   ar
     9     9    10   ar
    10    10    11    1
    11    11    12    1
    12    12    13    1
    13    13    14    1
    14    14    15   ar
    15    15    16   ar
    16    16    17   ar
    17    17    18    1
    18    18    19    2
    19    18    20    1
    20    20    21    1
    21    17    22   ar
    22    10     6   ar
    23    22    14   ar
    24     1    23    1
    25     1    24    1
    26     1    25    1
    27     2    26    1
    28     2    27    1
    29     7    28    1
    30     8    29    1
    31    11    30    1
    32    11    31    1
    33    13    32    1
    34    13    33    1
    35    15    34    1
    36    16    35    1
    37    21    36    1
    38    21    37    1
    39    21    38    1
