@<TRIPOS>MOLECULE
*****
 33 34 0 0 0
SMALL
GASTEIGER

@<TRIPOS>ATOM
      1 C           5.3072   -0.4871    0.5494 C.3     1  UNL1       -0.0306
      2 C           4.2453    0.0204    1.5067 C.3     1  UNL1        0.0900
      3 O           2.9674    0.0533    0.8562 O.3     1  UNL1       -0.4613
      4 C           2.6871    1.1917    0.1514 C.2     1  UNL1        0.3440
      5 O           3.4465    2.1499    0.0632 O.2     1  UNL1       -0.2448
      6 C           1.3863    1.1644   -0.4843 C.ar    1  UNL1        0.1177
      7 C           0.7981    2.2178   -1.2206 C.ar    1  UNL1        0.0653
      8 N          -0.4139    1.9186   -1.6905 N.ar    1  UNL1       -0.1768
      9 N          -0.6141    0.6501   -1.2633 N.ar    1  UNL1       -0.2458
     10 C          -1.8161   -0.0591   -1.6902 C.3     1  UNL1        0.0685
     11 C          -2.7848   -0.3012   -0.5563 C.ar    1  UNL1       -0.0261
     12 C          -3.2466   -1.5987   -0.2860 C.ar    1  UNL1       -0.0568
     13 C          -4.1509   -1.8273    0.7525 C.ar    1  UNL1       -0.0614
     14 C          -4.6103   -0.7628    1.5255 C.ar    1  UNL1       -0.0617
     15 C          -4.1709    0.5320    1.2582 C.ar    1  UNL1       -0.0614
     16 C          -3.2674    0.7635    0.2202 C.ar    1  UNL1       -0.0568
     17 C           0.4392    0.1555   -0.5201 C.ar    1  UNL1        0.1289
     18 N           0.4415   -1.0929    0.0128 N.pl3   1  UNL1       -0.3427
     19 H           5.0275   -1.4676    0.1500 H       1  UNL1        0.0262
     20 H           5.4186    0.1853   -0.3070 H       1  UNL1        0.0262
     21 H           6.2740   -0.5739    1.0532 H       1  UNL1        0.0262
     22 H           4.5103    1.0005    1.9194 H       1  UNL1        0.0695
     23 H           4.1546   -0.6689    2.3527 H       1  UNL1        0.0695
     24 H           1.2156    3.1957   -1.4282 H       1  UNL1        0.0857
     25 H          -1.4792   -0.9990   -2.1427 H       1  UNL1        0.0559
     26 H          -2.3050    0.5294   -2.4754 H       1  UNL1        0.0559
     27 H          -2.9077   -2.4425   -0.8839 H       1  UNL1        0.0621
     28 H          -4.5024   -2.8357    0.9560 H       1  UNL1        0.0618
     29 H          -5.3163   -0.9407    2.3326 H       1  UNL1        0.0618
     30 H          -4.5339    1.3644    1.8558 H       1  UNL1        0.0618
     31 H          -2.9387    1.7831    0.0207 H       1  UNL1        0.0621
     32 H           1.1798   -1.3075    0.6859 H       1  UNL1        0.1437
     33 H          -0.4410   -1.5111    0.3054 H       1  UNL1        0.1437
@<TRIPOS>BOND
     1     1     2    1
     2     2     3    1
     3     3     4    1
     4     4     5    2
     5     4     6    1
     6     6     7   ar
     7     7     8   ar
     8     8     9   ar
     9     9    10    1
    10    10    11    1
    11    11    12   ar
    12    12    13   ar
    13    13    14   ar
    14    14    15   ar
    15    15    16   ar
    16     9    17   ar
    17    17    18    1
    18    17     6   ar
    19    16    11   ar
    20     1    19    1
    21     1    20    1
    22     1    21    1
    23     2    22    1
    24     2    23    1
    25     7    24    1
    26    10    25    1
    27    10    26    1
    28    12    27    1
    29    13    28    1
    30    14    29    1
    31    15    30    1
    32    16    31    1
    33    18    32    1
    34    18    33    1
