@<TRIPOS>MOLECULE
*****
 35 36 0 0 0
SMALL
GASTEIGER

@<TRIPOS>ATOM
      1 C           6.2946   -1.5127   -0.9285 C.3     1  UNL1       -0.0306
      2 C           4.8673   -1.6979   -0.4516 C.3     1  UNL1        0.0900
      3 O           4.1463   -0.4904   -0.7221 O.3     1  UNL1       -0.4614
      4 C           2.8310   -0.5303   -0.3528 C.2     1  UNL1        0.3430
      5 O           2.3037   -1.4878    0.1973 O.2     1  UNL1       -0.2448
      6 C           2.1423    0.7130   -0.6430 C.ar    1  UNL1        0.1087
      7 C           2.7532    1.9328   -0.8593 C.ar    1  UNL1        0.1064
      8 O           1.8343    2.9122   -1.0384 O.2     1  UNL1       -0.4694
      9 C           0.6150    2.3256   -0.9581 C.ar    1  UNL1        0.1046
     10 C           0.7328    0.9668   -0.7312 C.ar    1  UNL1        0.0886
     11 C          -0.3641    0.0083   -0.6683 C.2     1  UNL1        0.2521
     12 O          -0.2410   -1.1075   -1.1548 O.2     1  UNL1       -0.2697
     13 N          -1.4955    0.5075   -0.0532 N.am    1  UNL1       -0.2807
     14 C          -2.7426   -0.1331    0.1666 C.ar    1  UNL1        0.0477
     15 C          -2.9865   -1.4516   -0.2383 C.ar    1  UNL1       -0.0397
     16 C          -4.2244   -2.0601   -0.0064 C.ar    1  UNL1       -0.0600
     17 C          -5.2416   -1.3622    0.6342 C.ar    1  UNL1       -0.0609
     18 C          -5.0237   -0.0493    1.0460 C.ar    1  UNL1       -0.0460
     19 C          -3.7832    0.5730    0.8183 C.ar    1  UNL1        0.0800
     20 C          -3.5763    1.9800    1.2603 C.2     1  UNL1        0.3386
     21 O          -2.5587    2.6311    1.0893 O.2     1  UNL1       -0.2451
     22 O          -4.6387    2.5088    1.8924 O.3     1  UNL1       -0.4771
     23 H           6.3170   -1.2897   -2.0004 H       1  UNL1        0.0262
     24 H           6.7651   -0.6662   -0.4174 H       1  UNL1        0.0262
     25 H           6.8881   -2.4121   -0.7423 H       1  UNL1        0.0262
     26 H           4.4045   -2.5344   -0.9872 H       1  UNL1        0.0695
     27 H           4.8613   -1.8989    0.6256 H       1  UNL1        0.0695
     28 H           3.7864    2.2523   -0.8921 H       1  UNL1        0.1038
     29 H          -0.2261    2.9901   -1.1081 H       1  UNL1        0.1037
     30 H          -1.4296    1.4542    0.3209 H       1  UNL1        0.1552
     31 H          -2.2285   -2.0474   -0.7383 H       1  UNL1        0.0636
     32 H          -4.3867   -3.0863   -0.3291 H       1  UNL1        0.0618
     33 H          -6.2020   -1.8394    0.8131 H       1  UNL1        0.0618
     34 H          -5.8315    0.4817    1.5447 H       1  UNL1        0.0626
     35 H          -4.3623    3.4198    2.1264 H       1  UNL1        0.2954
@<TRIPOS>BOND
     1     1     2    1
     2     2     3    1
     3     3     4    1
     4     4     5    2
     5     4     6    1
     6     6     7   ar
     7     7     8   ar
     8     8     9   ar
     9     9    10   ar
    10    10    11    1
    11    11    12    2
    12    11    13   am
    13    13    14    1
    14    14    15   ar
    15    15    16   ar
    16    16    17   ar
    17    17    18   ar
    18    18    19   ar
    19    19    20    1
    20    20    21    2
    21    20    22    1
    22    10     6   ar
    23    19    14   ar
    24     1    23    1
    25     1    24    1
    26     1    25    1
    27     2    26    1
    28     2    27    1
    29     7    28    1
    30     9    29    1
    31    13    30    1
    32    15    31    1
    33    16    32    1
    34    17    33    1
    35    18    34    1
    36    22    35    1
