@<TRIPOS>MOLECULE
*****
 40 45 0 0 0
SMALL
GASTEIGER

@<TRIPOS>ATOM
      1 SI          5.5042    1.4671    0.7337 Si      1  UNL1        0.0000
      2 C           7.0733    0.5389    0.3109 C.2     1  UNL1        0.0000
      3 C           6.7871   -0.6643   -0.2161 C.2     1  UNL1        0.0000
      4 C           5.3682   -0.9648   -0.3356 C.2     1  UNL1        0.0000
      5 C           4.5134   -0.0060    0.0940 C.2     1  UNL1        0.0000
      6 C           3.0474   -0.0878    0.0713 C.ar    1  UNL1        0.0000
      7 C           2.2120    0.9255    0.5217 C.ar    1  UNL1        0.0000
      8 C           0.8529    0.6570    0.4162 C.ar    1  UNL1        0.0000
      9 O          -0.1308    1.5103    0.7979 O.2     1  UNL1        0.0000
     10 C          -1.3153    0.8974    0.5403 C.ar    1  UNL1        0.0000
     11 C          -2.5677    1.4253    0.7820 C.ar    1  UNL1        0.0000
     12 SI         -2.9635    3.0637    1.5018 Si      1  UNL1        0.0000
     13 C          -4.7791    2.6085    1.3185 C.2     1  UNL1        0.0000
     14 C          -4.9647    1.3859    0.7856 C.2     1  UNL1        0.0000
     15 C          -3.7108    0.6632    0.4588 C.ar    1  UNL1        0.0000
     16 C          -3.5868   -0.6219   -0.1041 C.ar    1  UNL1        0.0000
     17 C          -4.6987   -1.4231   -0.4447 C.ar    1  UNL1        0.0000
     18 C          -4.5424   -2.6938   -1.0016 C.ar    1  UNL1        0.0000
     19 C          -3.2704   -3.1986   -1.2333 C.ar    1  UNL1        0.0000
     20 C          -2.1480   -2.4361   -0.9097 C.ar    1  UNL1        0.0000
     21 C          -2.2788   -1.1479   -0.3454 C.ar    1  UNL1        0.0000
     22 C          -1.1174   -0.3682   -0.0147 C.ar    1  UNL1        0.0000
     23 C           0.3119   -0.5147   -0.0913 C.ar    1  UNL1        0.0000
     24 C           1.2200   -1.4795   -0.5211 C.ar    1  UNL1        0.0000
     25 N           2.5576   -1.2520   -0.4335 N.ar    1  UNL1        0.0000
     26 H           5.3188    2.6833   -0.0966 H       1  UNL1        0.0000
     27 H           5.3394    1.6749    2.1940 H       1  UNL1        0.0000
     28 H           8.0525    0.9554    0.4855 H       1  UNL1        0.0000
     29 H           7.5348   -1.3790   -0.5374 H       1  UNL1        0.0000
     30 H           5.0474   -1.9143   -0.7506 H       1  UNL1        0.0000
     31 H           2.5497    1.8656    0.9296 H       1  UNL1        0.0000
     32 H          -2.5954    3.2110    2.9325 H       1  UNL1        0.0000
     33 H          -2.6154    4.2163    0.6332 H       1  UNL1        0.0000
     34 H          -5.5520    3.2961    1.6258 H       1  UNL1        0.0000
     35 H          -5.9413    0.9587    0.6073 H       1  UNL1        0.0000
     36 H          -5.7124   -1.0673   -0.2803 H       1  UNL1        0.0000
     37 H          -5.4180   -3.2869   -1.2533 H       1  UNL1        0.0000
     38 H          -3.1488   -4.1881   -1.6670 H       1  UNL1        0.0000
     39 H          -1.1760   -2.8709   -1.1083 H       1  UNL1        0.0000
     40 H           0.9430   -2.4388   -0.9381 H       1  UNL1        0.0000
@<TRIPOS>BOND
     1     1     2    1
     2     2     3    2
     3     3     4    1
     4     4     5    2
     5     5     6    1
     6     6     7   ar
     7     7     8   ar
     8     8     9   ar
     9     9    10   ar
    10    10    11   ar
    11    11    12    1
    12    12    13    1
    13    13    14    2
    14    14    15    1
    15    15    16   ar
    16    16    17   ar
    17    17    18   ar
    18    18    19   ar
    19    19    20   ar
    20    20    21   ar
    21    21    22   ar
    22    22    23   ar
    23    23    24   ar
    24    24    25   ar
    25     5     1    1
    26    25     6   ar
    27    23     8   ar
    28    22    10   ar
    29    15    11   ar
    30    21    16   ar
    31     1    26    1
    32     1    27    1
    33     2    28    1
    34     3    29    1
    35     4    30    1
    36     7    31    1
    37    12    32    1
    38    12    33    1
    39    13    34    1
    40    14    35    1
    41    17    36    1
    42    18    37    1
    43    19    38    1
    44    20    39    1
    45    24    40    1
