@<TRIPOS>MOLECULE
*****
 31 32 0 0 0
SMALL
GASTEIGER

@<TRIPOS>ATOM
      1 C           4.9594    0.5819    1.8462 C.3     1  UNL1       -0.0306
      2 C           3.8609    1.4729    1.2972 C.3     1  UNL1        0.0901
      3 O           2.6303    0.7436    1.2103 O.3     1  UNL1       -0.4593
      4 C           2.4467    0.0526    0.0637 C.2     1  UNL1        0.3786
      5 O           3.1952   -0.0328   -0.8929 O.2     1  UNL1       -0.2414
      6 C           1.0940   -0.6703    0.1340 C.ar    1  UNL1        0.2597
      7 N           1.0254   -1.9334    0.6671 N.ar    1  UNL1       -0.2003
      8 C          -0.1326   -2.5075    0.7113 C.ar    1  UNL1        0.1858
      9 N          -0.2432   -3.7647    1.2581 N.pl3   1  UNL1       -0.3387
     10 C          -1.3902   -1.8468    0.1553 C.ar    1  UNL1        0.3116
     11 O          -2.4088   -2.5294    0.1762 O.2     1  UNL1       -0.2621
     12 N          -1.1795   -0.5589   -0.3192 N.ar    1  UNL1       -0.1918
     13 C          -2.2050    0.2887   -0.8637 C.ar    1  UNL1        0.0694
     14 C          -1.8750    1.5574   -1.3804 C.ar    1  UNL1       -0.0361
     15 C          -2.8475    2.4092   -1.9165 C.ar    1  UNL1       -0.0598
     16 C          -4.1785    2.0125   -1.9469 C.ar    1  UNL1       -0.0616
     17 C          -4.5329    0.7671   -1.4407 C.ar    1  UNL1       -0.0598
     18 C          -3.5569   -0.0842   -0.9048 C.ar    1  UNL1       -0.0361
     19 N           0.0803   -0.0029   -0.3265 N.ar    1  UNL1       -0.1361
     20 H           5.1497   -0.2637    1.1777 H       1  UNL1        0.0262
     21 H           5.8889    1.1444    1.9712 H       1  UNL1        0.0262
     22 H           4.6666    0.1629    2.8145 H       1  UNL1        0.0262
     23 H           4.1406    1.9012    0.3277 H       1  UNL1        0.0695
     24 H           3.6899    2.3105    1.9814 H       1  UNL1        0.0695
     25 H           0.6146   -4.3029    1.2565 H       1  UNL1        0.1439
     26 H          -1.0745   -4.2786    0.9728 H       1  UNL1        0.1439
     27 H          -0.8457    1.9081   -1.3792 H       1  UNL1        0.0639
     28 H          -2.5584    3.3806   -2.3092 H       1  UNL1        0.0618
     29 H          -4.9369    2.6705   -2.3621 H       1  UNL1        0.0618
     30 H          -5.5727    0.4494   -1.4583 H       1  UNL1        0.0618
     31 H          -3.9039   -1.0376   -0.5209 H       1  UNL1        0.0639
@<TRIPOS>BOND
     1     1     2    1
     2     2     3    1
     3     3     4    1
     4     4     5    2
     5     4     6    1
     6     6     7   ar
     7     7     8   ar
     8     8     9    1
     9     8    10   ar
    10    10    11    2
    11    10    12   ar
    12    12    13    1
    13    13    14   ar
    14    14    15   ar
    15    15    16   ar
    16    16    17   ar
    17    17    18   ar
    18    12    19   ar
    19    19     6   ar
    20    18    13   ar
    21     1    20    1
    22     1    21    1
    23     1    22    1
    24     2    23    1
    25     2    24    1
    26     9    25    1
    27     9    26    1
    28    14    27    1
    29    15    28    1
    30    16    29    1
    31    17    30    1
    32    18    31    1
