@<TRIPOS>MOLECULE
*****
 31 32 0 0 0
SMALL
GASTEIGER

@<TRIPOS>ATOM
      1 C           4.6949    1.7470   -0.0012 C.3     1  UNL1       -0.0306
      2 C           3.9201    1.3124   -1.2311 C.3     1  UNL1        0.0900
      3 O           2.5990    0.8974   -0.8626 O.3     1  UNL1       -0.4603
      4 C           2.4608   -0.4096   -0.4831 C.2     1  UNL1        0.3614
      5 O           3.3889   -1.2137   -0.4409 O.2     1  UNL1       -0.2431
      6 C           1.0788   -0.7622   -0.1229 C.ar    1  UNL1        0.1914
      7 N           0.0670    0.1200   -0.1673 N.ar    1  UNL1       -0.1566
      8 N          -1.0494   -0.5587    0.2304 N.ar    1  UNL1       -0.2197
      9 C          -2.2937    0.1574    0.2747 C.ar    1  UNL1        0.0669
     10 C          -2.2987    1.5188   -0.0901 C.ar    1  UNL1       -0.0362
     11 C          -3.4780    2.2683   -0.0670 C.ar    1  UNL1       -0.0598
     12 C          -4.6722    1.6722    0.3202 C.ar    1  UNL1       -0.0616
     13 C          -4.6851    0.3288    0.6833 C.ar    1  UNL1       -0.0598
     14 C          -3.5056   -0.4277    0.6620 C.ar    1  UNL1       -0.0362
     15 C          -0.7435   -1.8761    0.5290 C.ar    1  UNL1        0.1650
     16 C          -1.6246   -2.8902    0.9741 C.1     1  UNL1        0.1211
     17 N          -2.3286   -3.7372    1.3399 N.1     1  UNL1       -0.1892
     18 C           0.6066   -2.0253    0.3099 C.ar    1  UNL1        0.0954
     19 N           1.3264   -3.1524    0.4770 N.pl3   1  UNL1       -0.3539
     20 H           5.6844    2.1213   -0.2785 H       1  UNL1        0.0262
     21 H           4.8196    0.9154    0.6994 H       1  UNL1        0.0262
     22 H           4.1558    2.5358    0.5337 H       1  UNL1        0.0262
     23 H           3.8102    2.1608   -1.9145 H       1  UNL1        0.0695
     24 H           4.4478    0.5245   -1.7806 H       1  UNL1        0.0695
     25 H          -1.3837    2.0230   -0.3994 H       1  UNL1        0.0639
     26 H          -3.4588    3.3172   -0.3523 H       1  UNL1        0.0618
     27 H          -5.5913    2.2522    0.3393 H       1  UNL1        0.0618
     28 H          -5.6197   -0.1389    0.9864 H       1  UNL1        0.0618
     29 H          -3.6064   -1.4631    0.9586 H       1  UNL1        0.0639
     30 H           0.9464   -4.0409    0.7959 H       1  UNL1        0.1425
     31 H           2.3327   -3.1764    0.2942 H       1  UNL1        0.1425
@<TRIPOS>BOND
     1     1     2    1
     2     2     3    1
     3     3     4    1
     4     4     5    2
     5     4     6    1
     6     6     7   ar
     7     7     8   ar
     8     8     9    1
     9     9    10   ar
    10    10    11   ar
    11    11    12   ar
    12    12    13   ar
    13    13    14   ar
    14     8    15   ar
    15    15    16    1
    16    16    17    3
    17    15    18   ar
    18    18    19    1
    19    18     6   ar
    20    14     9   ar
    21     1    20    1
    22     1    21    1
    23     1    22    1
    24     2    23    1
    25     2    24    1
    26    10    25    1
    27    11    26    1
    28    12    27    1
    29    13    28    1
    30    14    29    1
    31    19    30    1
    32    19    31    1
