@<TRIPOS>MOLECULE
*****
 43 46 0 0 0
SMALL
GASTEIGER

@<TRIPOS>ATOM
      1 C          -4.2547    2.7010   -1.3742 C.3     1  UNL1       -0.0306
      2 C          -2.7696    2.8070   -1.0874 C.3     1  UNL1        0.0901
      3 O          -2.2955    1.6051   -0.4617 O.3     1  UNL1       -0.4593
      4 C          -1.9646    0.5845   -1.3002 C.2     1  UNL1        0.3752
      5 O          -2.0896    0.6262   -2.5186 O.2     1  UNL1       -0.2415
      6 C          -1.4555   -0.5405   -0.5402 C.ar    1  UNL1        0.2166
      7 O          -1.1258   -1.6564   -1.2683 O.2     1  UNL1       -0.4479
      8 C          -0.6747   -2.6035   -0.4128 C.ar    1  UNL1        0.1363
      9 C          -0.2430   -3.8769   -0.7771 C.ar    1  UNL1       -0.0187
     10 C           0.1887   -4.7088    0.2605 C.ar    1  UNL1       -0.0582
     11 C           0.1809   -4.2695    1.5876 C.ar    1  UNL1       -0.0610
     12 C          -0.2613   -2.9803    1.9188 C.ar    1  UNL1       -0.0507
     13 C          -0.7010   -2.1260    0.8880 C.ar    1  UNL1        0.0250
     14 C          -1.2002   -0.7796    0.8134 C.ar    1  UNL1        0.0229
     15 C          -1.3859    0.1303    1.9853 C.3     1  UNL1        0.0307
     16 S           0.2119    0.7786    2.5736 S.3     1  UNL1       -0.0794
     17 C           0.4675    2.0417    1.4218 C.ar    1  UNL1        0.2143
     18 N          -0.2321    3.1561    1.4413 N.ar    1  UNL1       -0.1011
     19 N           0.2393    3.9196    0.4179 N.ar    1  UNL1       -0.0218
     20 N           1.2056    3.2958   -0.2340 N.ar    1  UNL1       -0.0382
     21 N           1.3898    2.0896    0.3802 N.ar    1  UNL1       -0.1875
     22 C           2.3764    1.1890   -0.1254 C.ar    1  UNL1        0.0699
     23 C           3.1824    1.6132   -1.2030 C.ar    1  UNL1       -0.0361
     24 C           4.1579    0.7745   -1.7475 C.ar    1  UNL1       -0.0598
     25 C           4.3416   -0.5030   -1.2308 C.ar    1  UNL1       -0.0616
     26 C           3.5518   -0.9385   -0.1692 C.ar    1  UNL1       -0.0598
     27 C           2.5791   -0.0984    0.3858 C.ar    1  UNL1       -0.0361
     28 H          -4.8071    2.4735   -0.4571 H       1  UNL1        0.0262
     29 H          -4.6342    3.6372   -1.7933 H       1  UNL1        0.0262
     30 H          -4.4640    1.8919   -2.0801 H       1  UNL1        0.0262
     31 H          -2.5933    3.6258   -0.3834 H       1  UNL1        0.0695
     32 H          -2.1967    3.0335   -1.9938 H       1  UNL1        0.0695
     33 H          -0.2461   -4.1992   -1.8125 H       1  UNL1        0.0654
     34 H           0.5357   -5.7140    0.0282 H       1  UNL1        0.0619
     35 H           0.5208   -4.9374    2.3772 H       1  UNL1        0.0618
     36 H          -0.2616   -2.6559    2.9559 H       1  UNL1        0.0625
     37 H          -2.0828    0.9485    1.7936 H       1  UNL1        0.0431
     38 H          -1.8253   -0.4435    2.8100 H       1  UNL1        0.0431
     39 H           3.0715    2.6048   -1.6426 H       1  UNL1        0.0639
     40 H           4.7745    1.1250   -2.5746 H       1  UNL1        0.0618
     41 H           5.0963   -1.1596   -1.6560 H       1  UNL1        0.0618
     42 H           3.6886   -1.9421    0.2312 H       1  UNL1        0.0618
     43 H           2.0042   -0.5193    1.2008 H       1  UNL1        0.0639
@<TRIPOS>BOND
     1     1     2    1
     2     2     3    1
     3     3     4    1
     4     4     5    2
     5     4     6    1
     6     6     7   ar
     7     7     8   ar
     8     8     9   ar
     9     9    10   ar
    10    10    11   ar
    11    11    12   ar
    12    12    13   ar
    13    13    14   ar
    14    14    15    1
    15    15    16    1
    16    16    17    1
    17    17    18   ar
    18    18    19   ar
    19    19    20   ar
    20    20    21   ar
    21    21    22    1
    22    22    23   ar
    23    23    24   ar
    24    24    25   ar
    25    25    26   ar
    26    26    27   ar
    27    14     6   ar
    28    21    17   ar
    29    27    22   ar
    30    13     8   ar
    31     1    28    1
    32     1    29    1
    33     1    30    1
    34     2    31    1
    35     2    32    1
    36     9    33    1
    37    10    34    1
    38    11    35    1
    39    12    36    1
    40    15    37    1
    41    15    38    1
    42    23    39    1
    43    24    40    1
    44    25    41    1
    45    26    42    1
    46    27    43    1
