@<TRIPOS>MOLECULE
*****
 42 44 0 0 0
SMALL
GASTEIGER

@<TRIPOS>ATOM
      1 C           6.7223   -0.0557    0.0810 C.3     1  UNL1       -0.0306
      2 C           5.9181   -0.3364    1.3364 C.3     1  UNL1        0.0901
      3 O           4.5475   -0.5869    1.0003 O.3     1  UNL1       -0.4593
      4 C           3.7429    0.5106    0.8987 C.2     1  UNL1        0.3768
      5 O           4.1210    1.6661    1.0666 O.2     1  UNL1       -0.2414
      6 C           2.3965    0.1196    0.5583 C.ar    1  UNL1        0.2350
      7 O           2.1129   -1.1974    0.3173 O.2     1  UNL1       -0.4283
      8 C           0.7934   -1.2850    0.0035 C.ar    1  UNL1        0.2305
      9 N           0.2101   -2.4540   -0.2999 N.ar    1  UNL1       -0.2169
     10 C          -1.1049   -2.3595   -0.5946 C.ar    1  UNL1        0.0477
     11 C          -1.7636   -3.6680   -0.9430 C.3     1  UNL1       -0.0219
     12 C          -1.8373   -1.1583   -0.5856 C.ar    1  UNL1        0.0032
     13 C          -1.1883    0.0458   -0.2267 C.ar    1  UNL1       -0.0235
     14 C           0.1954   -0.0288    0.0506 C.ar    1  UNL1        0.0650
     15 C           1.2456    0.8696    0.3934 C.ar    1  UNL1        0.0874
     16 N           1.1538    2.2109    0.5342 N.pl3   1  UNL1       -0.3543
     17 C          -1.9755    1.3321   -0.2022 C.3     1  UNL1        0.0022
     18 C          -3.4938    1.1059   -0.0905 C.3     1  UNL1        0.0684
     19 C          -4.2238    2.4048   -0.4617 C.3     1  UNL1       -0.0358
     20 C          -3.9261    0.6986    1.3274 C.3     1  UNL1       -0.0358
     21 O          -3.8935    0.1384   -1.0689 O.3     1  UNL1       -0.3689
     22 C          -3.3175   -1.1574   -0.8943 C.3     1  UNL1        0.0753
     23 H           6.6231   -0.8811   -0.6316 H       1  UNL1        0.0262
     24 H           7.7809    0.0788    0.3204 H       1  UNL1        0.0262
     25 H           6.3611    0.8458   -0.4240 H       1  UNL1        0.0262
     26 H           6.0086    0.4800    2.0621 H       1  UNL1        0.0695
     27 H           6.2990   -1.2407    1.8222 H       1  UNL1        0.0695
     28 H          -2.6012   -3.8683   -0.2679 H       1  UNL1        0.0293
     29 H          -2.1203   -3.6517   -1.9773 H       1  UNL1        0.0293
     30 H          -1.0550   -4.4978   -0.8477 H       1  UNL1        0.0293
     31 H           2.0052    2.7684    0.6333 H       1  UNL1        0.1424
     32 H           0.3990    2.7364    0.1046 H       1  UNL1        0.1424
     33 H          -1.7459    1.8507   -1.1423 H       1  UNL1        0.0341
     34 H          -1.6401    1.9691    0.6237 H       1  UNL1        0.0341
     35 H          -3.9896    2.7066   -1.4892 H       1  UNL1        0.0257
     36 H          -5.3104    2.2649   -0.4234 H       1  UNL1        0.0257
     37 H          -3.9556    3.2265    0.2105 H       1  UNL1        0.0257
     38 H          -3.4005   -0.1927    1.6840 H       1  UNL1        0.0257
     39 H          -3.7346    1.5020    2.0470 H       1  UNL1        0.0257
     40 H          -4.9953    0.4592    1.3503 H       1  UNL1        0.0257
     41 H          -3.4984   -1.6933   -1.8318 H       1  UNL1        0.0611
     42 H          -3.8651   -1.6780   -0.1007 H       1  UNL1        0.0611
@<TRIPOS>BOND
     1     1     2    1
     2     2     3    1
     3     3     4    1
     4     4     5    2
     5     4     6    1
     6     6     7   ar
     7     7     8   ar
     8     8     9   ar
     9     9    10   ar
    10    10    11    1
    11    10    12   ar
    12    12    13   ar
    13    13    14   ar
    14    14    15   ar
    15    15    16    1
    16    13    17    1
    17    17    18    1
    18    18    19    1
    19    18    20    1
    20    18    21    1
    21    21    22    1
    22    15     6   ar
    23    14     8   ar
    24    22    12    1
    25     1    23    1
    26     1    24    1
    27     1    25    1
    28     2    26    1
    29     2    27    1
    30    11    28    1
    31    11    29    1
    32    11    30    1
    33    16    31    1
    34    16    32    1
    35    17    33    1
    36    17    34    1
    37    19    35    1
    38    19    36    1
    39    19    37    1
    40    20    38    1
    41    20    39    1
    42    20    40    1
    43    22    41    1
    44    22    42    1
