@<TRIPOS>MOLECULE
*****
 35 36 0 0 0
SMALL
GASTEIGER

@<TRIPOS>ATOM
      1 C           4.6965   -0.9158   -0.9584 C.3     1  UNL1       -0.0306
      2 C           4.0570   -1.4337    0.3162 C.3     1  UNL1        0.0900
      3 O           2.6339   -1.5217    0.1557 O.3     1  UNL1       -0.4610
      4 C           1.9236   -0.3828    0.4220 C.2     1  UNL1        0.3481
      5 O           2.4525    0.6676    0.7656 O.2     1  UNL1       -0.2443
      6 C           0.5033   -0.5952    0.2297 C.ar    1  UNL1        0.1251
      7 S          -0.1476   -2.1703   -0.0052 S.2     1  UNL1       -0.0451
      8 C          -1.7562   -1.5440   -0.0530 C.ar    1  UNL1        0.1615
      9 N          -2.8731   -2.3236   -0.2028 N.pl3   1  UNL1       -0.3157
     10 C          -4.1302   -1.6100   -0.4079 C.3     1  UNL1        0.0021
     11 C          -2.7715   -3.6227   -0.8531 C.3     1  UNL1        0.0021
     12 N          -1.8060   -0.2393    0.0961 N.ar    1  UNL1       -0.2239
     13 C          -0.5410    0.3137    0.2292 C.ar    1  UNL1        0.0943
     14 C          -0.4222    1.7570    0.3794 C.ar    1  UNL1        0.0018
     15 C          -1.1853    2.4075    1.3584 C.ar    1  UNL1       -0.0525
     16 C          -1.1135    3.7941    1.5075 C.ar    1  UNL1       -0.0611
     17 C          -0.2867    4.5422    0.6713 C.ar    1  UNL1       -0.0617
     18 C           0.4621    3.9065   -0.3182 C.ar    1  UNL1       -0.0611
     19 C           0.3900    2.5192   -0.4694 C.ar    1  UNL1       -0.0525
     20 H           5.7862   -0.9015   -0.8674 H       1  UNL1        0.0262
     21 H           4.4211   -1.5465   -1.8100 H       1  UNL1        0.0262
     22 H           4.3518    0.0973   -1.1883 H       1  UNL1        0.0262
     23 H           4.4179   -2.4466    0.5226 H       1  UNL1        0.0695
     24 H           4.3244   -0.8160    1.1812 H       1  UNL1        0.0695
     25 H          -4.1528   -1.1358   -1.3955 H       1  UNL1        0.0428
     26 H          -4.9817   -2.2962   -0.3406 H       1  UNL1        0.0428
     27 H          -4.2868   -0.8433    0.3597 H       1  UNL1        0.0428
     28 H          -2.0785   -4.2857   -0.3242 H       1  UNL1        0.0428
     29 H          -2.4458   -3.5161   -1.8939 H       1  UNL1        0.0428
     30 H          -3.7405   -4.1346   -0.8574 H       1  UNL1        0.0428
     31 H          -1.8428    1.8322    2.0070 H       1  UNL1        0.0624
     32 H          -1.7052    4.2881    2.2733 H       1  UNL1        0.0618
     33 H          -0.2292    5.6212    0.7874 H       1  UNL1        0.0618
     34 H           1.1029    4.4900   -0.9739 H       1  UNL1        0.0618
     35 H           0.9734    2.0449   -1.2541 H       1  UNL1        0.0624
@<TRIPOS>BOND
     1     1     2    1
     2     2     3    1
     3     3     4    1
     4     4     5    2
     5     4     6    1
     6     6     7   ar
     7     7     8   ar
     8     8     9    1
     9     9    10    1
    10     9    11    1
    11     8    12   ar
    12    12    13   ar
    13    13    14    1
    14    14    15   ar
    15    15    16   ar
    16    16    17   ar
    17    17    18   ar
    18    18    19   ar
    19    13     6   ar
    20    19    14   ar
    21     1    20    1
    22     1    21    1
    23     1    22    1
    24     2    23    1
    25     2    24    1
    26    10    25    1
    27    10    26    1
    28    10    27    1
    29    11    28    1
    30    11    29    1
    31    11    30    1
    32    15    31    1
    33    16    32    1
    34    17    33    1
    35    18    34    1
    36    19    35    1
