@<TRIPOS>MOLECULE
*****
 44 45 0 0 0
SMALL
GASTEIGER

@<TRIPOS>ATOM
      1 C           7.8232    0.0363   -2.1698 C.3     1  UNL1       -0.0306
      2 C           6.9575    0.9860   -1.3649 C.3     1  UNL1        0.0900
      3 O           5.6139    0.4858   -1.3958 O.3     1  UNL1       -0.4610
      4 C           4.7502    1.1266   -0.5562 C.2     1  UNL1        0.3477
      5 O           5.0793    2.0623    0.1655 O.2     1  UNL1       -0.2443
      6 C           3.4308    0.5413   -0.6482 C.ar    1  UNL1        0.1202
      7 S           2.2143    1.0435    0.4592 S.2     1  UNL1       -0.0453
      8 C           1.0983   -0.0038   -0.2714 C.ar    1  UNL1        0.1654
      9 N          -0.1998   -0.1385    0.1435 N.am    1  UNL1       -0.2638
     10 C          -0.7925    0.4606    1.2411 C.2     1  UNL1        0.2320
     11 O          -0.2581    1.2533    2.0127 O.2     1  UNL1       -0.2742
     12 C          -2.2583    0.0298    1.4134 C.3     1  UNL1        0.0888
     13 C          -2.7365    0.1808    2.8662 C.3     1  UNL1       -0.0351
     14 C          -2.1267   -0.8834    3.7747 C.3     1  UNL1       -0.0638
     15 S          -3.2579    1.1157    0.3111 S.3     1  UNL1       -0.0750
     16 C          -4.6877    0.1541    0.1434 C.ar    1  UNL1        0.1694
     17 N          -4.7451   -1.1475    0.3034 N.ar    1  UNL1       -0.2303
     18 C          -6.0621   -1.4765    0.1063 C.ar    1  UNL1        0.0466
     19 C          -6.8085   -0.3555   -0.1828 C.ar    1  UNL1        0.0247
     20 N          -5.9155    0.6833   -0.1565 N.ar    1  UNL1       -0.3286
     21 C          -6.2451    2.0711   -0.3698 C.3     1  UNL1        0.0137
     22 N           1.5515   -0.7007   -1.2849 N.ar    1  UNL1       -0.2290
     23 C           2.8981   -0.4245   -1.4949 C.ar    1  UNL1        0.0615
     24 C           3.5814   -1.1630   -2.5908 C.3     1  UNL1       -0.0210
     25 H           8.8479    0.4111   -2.2358 H       1  UNL1        0.0262
     26 H           7.8374   -0.9512   -1.6962 H       1  UNL1        0.0262
     27 H           7.4225   -0.1009   -3.1836 H       1  UNL1        0.0262
     28 H           6.9824    1.9859   -1.8108 H       1  UNL1        0.0695
     29 H           7.3267    1.0255   -0.3338 H       1  UNL1        0.0695
     30 H          -0.7368   -0.7767   -0.4289 H       1  UNL1        0.1568
     31 H          -2.3504   -1.0160    1.0907 H       1  UNL1        0.0511
     32 H          -2.4832    1.1727    3.2645 H       1  UNL1        0.0278
     33 H          -3.8267    0.0821    2.9305 H       1  UNL1        0.0278
     34 H          -2.4518   -0.7211    4.8076 H       1  UNL1        0.0230
     35 H          -1.0325   -0.8477    3.7593 H       1  UNL1        0.0230
     36 H          -2.4442   -1.8845    3.4671 H       1  UNL1        0.0230
     37 H          -6.4044   -2.5003    0.1978 H       1  UNL1        0.0845
     38 H          -7.8628   -0.2191   -0.3846 H       1  UNL1        0.0825
     39 H          -7.3114    2.1601   -0.5914 H       1  UNL1        0.0456
     40 H          -6.0127    2.6326    0.5390 H       1  UNL1        0.0456
     41 H          -5.6663    2.4454   -1.2169 H       1  UNL1        0.0456
     42 H           2.8975   -1.8824   -3.0586 H       1  UNL1        0.0293
     43 H           3.9265   -0.4753   -3.3667 H       1  UNL1        0.0293
     44 H           4.4377   -1.7254   -2.2036 H       1  UNL1        0.0293
@<TRIPOS>BOND
     1     1     2    1
     2     2     3    1
     3     3     4    1
     4     4     5    2
     5     4     6    1
     6     6     7   ar
     7     7     8   ar
     8     8     9    1
     9     9    10   am
    10    10    11    2
    11    10    12    1
    12    12    13    1
    13    13    14    1
    14    12    15    1
    15    15    16    1
    16    16    17   ar
    17    17    18   ar
    18    18    19   ar
    19    19    20   ar
    20    20    21    1
    21     8    22   ar
    22    22    23   ar
    23    23    24    1
    24    23     6   ar
    25    20    16   ar
    26     1    25    1
    27     1    26    1
    28     1    27    1
    29     2    28    1
    30     2    29    1
    31     9    30    1
    32    12    31    1
    33    13    32    1
    34    13    33    1
    35    14    34    1
    36    14    35    1
    37    14    36    1
    38    18    37    1
    39    19    38    1
    40    21    39    1
    41    21    40    1
    42    21    41    1
    43    24    42    1
    44    24    43    1
    45    24    44    1
