@<TRIPOS>MOLECULE
*****
 45 48 0 0 0
SMALL
GASTEIGER

@<TRIPOS>ATOM
      1 C           7.1983   -0.6161   -0.2182 C.3     1  UNL1       -0.0306
      2 C           6.1808   -1.7050   -0.4975 C.3     1  UNL1        0.0900
      3 O           4.8734   -1.1485   -0.3135 O.3     1  UNL1       -0.4610
      4 C           3.8496   -2.0298   -0.5431 C.2     1  UNL1        0.3478
      5 O           4.0329   -3.1990   -0.8655 O.2     1  UNL1       -0.2443
      6 C           2.5643   -1.3847   -0.3375 C.ar    1  UNL1        0.1193
      7 S           1.1576   -2.3674   -0.4378 S.2     1  UNL1       -0.0603
      8 C           0.1241   -1.0618   -0.1040 C.ar    1  UNL1        0.1131
      9 N          -1.2097   -1.2619   -0.0325 N.ar    1  UNL1       -0.2245
     10 C          -1.9630   -0.1793    0.2262 C.ar    1  UNL1        0.1261
     11 N          -3.3677   -0.3072    0.3192 N.pl3   1  UNL1       -0.3106
     12 C          -3.9847   -0.0436   -1.0025 C.3     1  UNL1        0.0370
     13 C          -5.5140   -0.1536   -0.8746 C.3     1  UNL1        0.0634
     14 O          -5.9154   -1.4434   -0.3821 O.3     1  UNL1       -0.3767
     15 C          -5.3066   -1.7031    0.8959 C.3     1  UNL1        0.0634
     16 C          -3.7726   -1.6469    0.8076 C.3     1  UNL1        0.0370
     17 C          -1.3932    1.0729    0.4016 C.ar    1  UNL1       -0.0036
     18 C          -0.0031    1.2518    0.3264 C.ar    1  UNL1       -0.0294
     19 C           0.8096    0.1362    0.0686 C.ar    1  UNL1        0.0327
     20 C           2.2275   -0.0700   -0.0545 C.ar    1  UNL1        0.0555
     21 N           3.1320    0.9296    0.0873 N.pl3   1  UNL1       -0.3564
     22 C           0.3532    2.6877    0.6012 C.3     1  UNL1       -0.0263
     23 C          -0.9959    3.3840    0.3991 C.3     1  UNL1       -0.0449
     24 C          -2.0713    2.3581    0.7709 C.3     1  UNL1       -0.0239
     25 H           8.2173   -0.9920   -0.3455 H       1  UNL1        0.0262
     26 H           7.0859   -0.2363    0.8027 H       1  UNL1        0.0262
     27 H           7.0478    0.2339   -0.8920 H       1  UNL1        0.0262
     28 H           6.3302   -2.5376    0.1989 H       1  UNL1        0.0695
     29 H           6.2917   -2.0584   -1.5287 H       1  UNL1        0.0695
     30 H          -3.7313    0.9575   -1.3688 H       1  UNL1        0.0487
     31 H          -3.6305   -0.7794   -1.7372 H       1  UNL1        0.0487
     32 H          -5.9797   -0.0150   -1.8553 H       1  UNL1        0.0575
     33 H          -5.9084    0.6188   -0.2036 H       1  UNL1        0.0575
     34 H          -5.6878   -0.9768    1.6236 H       1  UNL1        0.0575
     35 H          -5.6252   -2.6997    1.2170 H       1  UNL1        0.0575
     36 H          -3.3469   -1.8358    1.8002 H       1  UNL1        0.0487
     37 H          -3.4360   -2.4335    0.1192 H       1  UNL1        0.0487
     38 H           2.8907    1.7992    0.5513 H       1  UNL1        0.1424
     39 H           4.1264    0.7104    0.1546 H       1  UNL1        0.1424
     40 H           0.7034    2.7930    1.6330 H       1  UNL1        0.0314
     41 H           1.1044    3.0736   -0.0928 H       1  UNL1        0.0314
     42 H          -1.1066    3.6545   -0.6604 H       1  UNL1        0.0272
     43 H          -1.0807    4.3085    0.9786 H       1  UNL1        0.0272
     44 H          -2.2784    2.3756    1.8461 H       1  UNL1        0.0314
     45 H          -2.9925    2.5405    0.2125 H       1  UNL1        0.0314
@<TRIPOS>BOND
     1     1     2    1
     2     2     3    1
     3     3     4    1
     4     4     5    2
     5     4     6    1
     6     6     7   ar
     7     7     8   ar
     8     8     9   ar
     9     9    10   ar
    10    10    11    1
    11    11    12    1
    12    12    13    1
    13    13    14    1
    14    14    15    1
    15    15    16    1
    16    10    17   ar
    17    17    18   ar
    18    18    19   ar
    19    19    20   ar
    20    20    21    1
    21    18    22    1
    22    22    23    1
    23    23    24    1
    24    20     6   ar
    25    19     8   ar
    26    16    11    1
    27    24    17    1
    28     1    25    1
    29     1    26    1
    30     1    27    1
    31     2    28    1
    32     2    29    1
    33    12    30    1
    34    12    31    1
    35    13    32    1
    36    13    33    1
    37    15    34    1
    38    15    35    1
    39    16    36    1
    40    16    37    1
    41    21    38    1
    42    21    39    1
    43    22    40    1
    44    22    41    1
    45    23    42    1
    46    23    43    1
    47    24    44    1
    48    24    45    1
