@<TRIPOS>MOLECULE
*****
 37 39 0 0 0
SMALL
GASTEIGER

@<TRIPOS>ATOM
      1 C           7.5288    1.5014    0.8860 C.3     1  UNL1       -0.0306
      2 C           6.2802    1.7773    1.7024 C.3     1  UNL1        0.0897
      3 O           5.3676    0.6737    1.5990 O.3     1  UNL1       -0.4646
      4 C           4.5056    0.7094    0.5377 C.2     1  UNL1        0.3130
      5 O           4.4933    1.5846   -0.3168 O.2     1  UNL1       -0.2504
      6 C           3.6307   -0.5226    0.5702 C.3     1  UNL1        0.0877
      7 C           2.4623   -0.4365   -0.3562 C.ar    1  UNL1        0.0611
      8 C           2.4955   -0.4112   -1.7389 C.ar    1  UNL1        0.0007
      9 S           0.9025   -0.3376   -2.3616 S.2     1  UNL1       -0.0602
     10 C           0.2885   -0.3642   -0.7761 C.ar    1  UNL1        0.1648
     11 N          -1.0496   -0.3118   -0.4833 N.am    1  UNL1       -0.2607
     12 C          -2.0948   -0.3368   -1.3756 C.2     1  UNL1        0.2498
     13 O          -2.0383   -0.4776   -2.5902 O.2     1  UNL1       -0.2698
     14 C          -3.4430   -0.2185   -0.7498 C.ar    1  UNL1        0.0408
     15 C          -3.6650    0.6094    0.3751 C.ar    1  UNL1       -0.0459
     16 C          -4.9399    0.7061    0.9437 C.ar    1  UNL1       -0.0154
     17 C          -5.9577   -0.0212    0.3646 C.ar    1  UNL1        0.1663
     18 C          -5.7469   -0.8148   -0.7390 C.ar    1  UNL1        0.1669
     19 C          -4.5049   -0.9319   -1.3246 C.ar    1  UNL1       -0.0040
     20 O          -6.8825   -1.4376   -1.1528 O.3     1  UNL1       -0.4526
     21 C          -7.8351   -0.9375   -0.1917 C.3     1  UNL1        0.2332
     22 O          -7.2516   -0.0449    0.7811 O.3     1  UNL1       -0.4526
     23 N           1.1820   -0.4169    0.1852 N.ar    1  UNL1       -0.2290
     24 H           7.9929    0.5606    1.1995 H       1  UNL1        0.0262
     25 H           8.2557    2.3100    1.0038 H       1  UNL1        0.0262
     26 H           7.2890    1.3992   -0.1771 H       1  UNL1        0.0262
     27 H           6.5461    1.8738    2.7601 H       1  UNL1        0.0694
     28 H           5.8039    2.7181    1.4035 H       1  UNL1        0.0694
     29 H           4.2469   -1.3884    0.3034 H       1  UNL1        0.0442
     30 H           3.2653   -0.6597    1.5947 H       1  UNL1        0.0442
     31 H           3.3544   -0.4179   -2.3950 H       1  UNL1        0.0712
     32 H          -1.2272   -0.3294    0.5099 H       1  UNL1        0.1571
     33 H          -2.8603    1.2066    0.7973 H       1  UNL1        0.0626
     34 H          -5.1282    1.3402    1.8032 H       1  UNL1        0.0655
     35 H          -4.3590   -1.5567   -2.2001 H       1  UNL1        0.0663
     36 H          -8.6274   -0.4025   -0.7279 H       1  UNL1        0.1166
     37 H          -8.2800   -1.7886    0.3365 H       1  UNL1        0.1166
@<TRIPOS>BOND
     1     1     2    1
     2     2     3    1
     3     3     4    1
     4     4     5    2
     5     4     6    1
     6     6     7    1
     7     7     8   ar
     8     8     9   ar
     9     9    10   ar
    10    10    11    1
    11    11    12   am
    12    12    13    2
    13    12    14    1
    14    14    15   ar
    15    15    16   ar
    16    16    17   ar
    17    17    18   ar
    18    18    19   ar
    19    18    20    1
    20    20    21    1
    21    21    22    1
    22    10    23   ar
    23    23     7   ar
    24    19    14   ar
    25    22    17    1
    26     1    24    1
    27     1    25    1
    28     1    26    1
    29     2    27    1
    30     2    28    1
    31     6    29    1
    32     6    30    1
    33     8    31    1
    34    11    32    1
    35    15    33    1
    36    16    34    1
    37    19    35    1
    38    21    36    1
    39    21    37    1
