@<TRIPOS>MOLECULE
*****
 28 28 0 0 0
SMALL
GASTEIGER

@<TRIPOS>ATOM
      1 C          -4.5546    1.2491   -0.6404 C.3     1  UNL1       -0.0306
      2 C          -4.3537    0.1799    0.4169 C.3     1  UNL1        0.0896
      3 O          -2.9729    0.1201    0.8045 O.3     1  UNL1       -0.4649
      4 C          -2.1728   -0.6750    0.0394 C.2     1  UNL1        0.3086
      5 O          -2.5422   -1.3281   -0.9261 O.2     1  UNL1       -0.2508
      6 C          -0.7668   -0.6356    0.5730 C.3     1  UNL1        0.0604
      7 C           0.1597   -1.4480   -0.3205 C.3     1  UNL1        0.0207
      8 N           1.5131   -1.4581    0.2078 N.pl3   1  UNL1       -0.3229
      9 C           2.4125   -0.4301   -0.0035 C.ar    1  UNL1        0.2041
     10 N           2.0552    0.7652   -0.3800 N.ar    1  UNL1       -0.1493
     11 N           3.0344    1.6990   -0.5487 N.ar    1  UNL1       -0.2264
     12 C           4.3721    1.5221   -0.3196 C.ar    1  UNL1        0.3430
     13 O           5.1907    2.4155   -0.5154 O.2     1  UNL1       -0.2452
     14 N           4.7527    0.2975    0.1240 N.ar    1  UNL1       -0.2711
     15 C           3.8975   -0.7558    0.2200 C.ar    1  UNL1        0.2942
     16 O           4.2362   -1.9102    0.4468 O.2     1  UNL1       -0.2640
     17 H          -5.6127    1.3433   -0.9006 H       1  UNL1        0.0262
     18 H          -3.9910    1.0144   -1.5489 H       1  UNL1        0.0262
     19 H          -4.1913    2.2177   -0.2815 H       1  UNL1        0.0262
     20 H          -4.9267    0.4369    1.3139 H       1  UNL1        0.0694
     21 H          -4.7137   -0.7969    0.0740 H       1  UNL1        0.0694
     22 H          -0.4429    0.4094    0.6168 H       1  UNL1        0.0393
     23 H          -0.7669   -1.0463    1.5889 H       1  UNL1        0.0393
     24 H          -0.1946   -2.4846   -0.3722 H       1  UNL1        0.0467
     25 H           0.1551   -1.0676   -1.3494 H       1  UNL1        0.0467
     26 H           1.9488   -2.3775    0.2841 H       1  UNL1        0.1477
     27 H           2.7364    2.6155   -0.8690 H       1  UNL1        0.1937
     28 H           5.7383    0.1280    0.2364 H       1  UNL1        0.1736
@<TRIPOS>BOND
     1     1     2    1
     2     2     3    1
     3     3     4    1
     4     4     5    2
     5     4     6    1
     6     6     7    1
     7     7     8    1
     8     8     9    1
     9     9    10   ar
    10    10    11   ar
    11    11    12   ar
    12    12    13    2
    13    12    14   ar
    14    14    15   ar
    15    15    16    2
    16    15     9   ar
    17     1    17    1
    18     1    18    1
    19     1    19    1
    20     2    20    1
    21     2    21    1
    22     6    22    1
    23     6    23    1
    24     7    24    1
    25     7    25    1
    26     8    26    1
    27    11    27    1
    28    14    28    1
