@<TRIPOS>MOLECULE
*****
 37 37 0 0 0
SMALL
GASTEIGER

@<TRIPOS>ATOM
      1 C          -5.0288    1.4197   -0.4022 C.3     1  UNL1       -0.0306
      2 C          -4.0404    2.1613    0.4784 C.3     1  UNL1        0.0897
      3 O          -3.2122    1.2288    1.1892 O.3     1  UNL1       -0.4638
      4 C          -2.1156    0.7772    0.5092 C.2     1  UNL1        0.3264
      5 O          -1.7839    1.1528   -0.6059 O.2     1  UNL1       -0.2490
      6 C          -1.3572   -0.2080    1.3734 C.3     1  UNL1        0.1315
      7 N          -0.4158   -1.1224    0.6747 N.pl3   1  UNL1       -0.1969
      8 C           0.9627   -0.7349    0.6248 C.ar    1  UNL1        0.0521
      9 C           1.8580   -1.4183    1.4515 C.ar    1  UNL1       -0.0390
     10 C           3.2103   -1.0769    1.4565 C.ar    1  UNL1       -0.0593
     11 C           3.6709   -0.0426    0.6405 C.ar    1  UNL1       -0.0512
     12 C           2.7743    0.6531   -0.1801 C.ar    1  UNL1        0.0189
     13 C           3.2265    1.7807   -1.0395 C.2     1  UNL1        0.1602
     14 C           4.6622    1.8136   -1.4936 C.3     1  UNL1       -0.0014
     15 O           2.4375    2.6718   -1.3421 O.2     1  UNL1       -0.2924
     16 C           1.4161    0.3094   -0.1817 C.ar    1  UNL1       -0.0286
     17 S          -1.0470   -1.9646   -0.6642 S.O2    1  UNL1        0.0431
     18 C          -0.4447   -3.6035   -0.3237 C.3     1  UNL1        0.0738
     19 O          -0.4254   -1.5155   -1.8895 O.2     1  UNL1       -0.1552
     20 O          -2.4876   -2.0214   -0.5121 O.2     1  UNL1       -0.1552
     21 H          -5.7048    2.1198   -0.9011 H       1  UNL1        0.0262
     22 H          -5.6226    0.7182    0.1930 H       1  UNL1        0.0262
     23 H          -4.5111    0.8302   -1.1655 H       1  UNL1        0.0262
     24 H          -4.5833    2.7431    1.2305 H       1  UNL1        0.0694
     25 H          -3.4369    2.8696   -0.1008 H       1  UNL1        0.0694
     26 H          -0.8192    0.3696    2.1350 H       1  UNL1        0.0598
     27 H          -2.0818   -0.8382    1.9043 H       1  UNL1        0.0598
     28 H           1.5056   -2.2188    2.0970 H       1  UNL1        0.0636
     29 H           3.9036   -1.6114    2.1020 H       1  UNL1        0.0618
     30 H           4.7252    0.2190    0.6739 H       1  UNL1        0.0625
     31 H           4.7321    2.4037   -2.4125 H       1  UNL1        0.0309
     32 H           5.2843    2.2744   -0.7224 H       1  UNL1        0.0309
     33 H           5.0220    0.8072   -1.7242 H       1  UNL1        0.0309
     34 H           0.7261    0.8482   -0.8290 H       1  UNL1        0.0643
     35 H          -0.7891   -3.9112    0.6654 H       1  UNL1        0.0482
     36 H           0.6448   -3.6088   -0.3818 H       1  UNL1        0.0482
     37 H          -0.8546   -4.2751   -1.0816 H       1  UNL1        0.0482
@<TRIPOS>BOND
     1     1     2    1
     2     2     3    1
     3     3     4    1
     4     4     5    2
     5     4     6    1
     6     6     7    1
     7     7     8    1
     8     8     9   ar
     9     9    10   ar
    10    10    11   ar
    11    11    12   ar
    12    12    13    1
    13    13    14    1
    14    13    15    2
    15    12    16   ar
    16     7    17    1
    17    17    18    1
    18    17    19    2
    19    17    20    2
    20    16     8   ar
    21     1    21    1
    22     1    22    1
    23     1    23    1
    24     2    24    1
    25     2    25    1
    26     6    26    1
    27     6    27    1
    28     9    28    1
    29    10    29    1
    30    11    30    1
    31    14    31    1
    32    14    32    1
    33    14    33    1
    34    16    34    1
    35    18    35    1
    36    18    36    1
    37    18    37    1
