@<TRIPOS>MOLECULE
*****
 43 49 0 0 0
SMALL
GASTEIGER

@<TRIPOS>ATOM
      1 SI          5.3794   -1.0365   -1.0412 Si      1  UNL1        0.0000
      2 C           6.8291   -0.6438    0.0996 C.2     1  UNL1        0.0000
      3 C           6.4227    0.0290    1.1917 C.2     1  UNL1        0.0000
      4 C           4.9941    0.2957    1.2601 C.2     1  UNL1        0.0000
      5 C           4.2757   -0.1506    0.2092 C.2     1  UNL1        0.0000
      6 C           2.8393   -0.0635    0.0459 C.ar    1  UNL1        0.0000
      7 C           1.9202   -0.7251    0.8810 C.ar    1  UNL1        0.0000
      8 C           0.5082   -0.6135    0.6939 C.ar    1  UNL1        0.0000
      9 S          -0.7130   -1.2721    1.7159 S.2     1  UNL1        0.0000
     10 C          -2.0265   -0.6639    0.7441 C.ar    1  UNL1        0.0000
     11 C          -1.4873   -0.0680   -0.3966 C.ar    1  UNL1        0.0000
     12 C          -2.4325    0.2595   -1.4379 C.ar    1  UNL1        0.0000
     13 C          -2.1388    0.5413   -2.7418 C.ar    1  UNL1        0.0000
     14 S          -3.5809    0.8774   -3.6126 S.2     1  UNL1        0.0000
     15 C          -4.5627    0.5112   -2.2468 C.ar    1  UNL1        0.0000
     16 C          -3.8179    0.1402   -1.1444 C.ar    1  UNL1        0.0000
     17 C          -4.4081   -0.3199    0.0580 C.ar    1  UNL1        0.0000
     18 C          -5.7925   -0.4152    0.3509 C.ar    1  UNL1        0.0000
     19 C          -6.2196   -0.9469    1.5662 C.ar    1  UNL1        0.0000
     20 C          -5.2861   -1.3948    2.4964 C.ar    1  UNL1        0.0000
     21 C          -3.9171   -1.3088    2.2233 C.ar    1  UNL1        0.0000
     22 C          -3.4467   -0.7649    1.0066 C.ar    1  UNL1        0.0000
     23 C          -0.0918    0.0929   -0.3425 C.ar    1  UNL1        0.0000
     24 C           0.8176    0.8953   -1.1233 C.ar    1  UNL1        0.0000
     25 C           0.5908    1.9180   -1.9990 C.ar    1  UNL1        0.0000
     26 N           1.8361    2.3520   -2.4021 N.ar    1  UNL1        0.0000
     27 C           2.8196    1.6594   -1.7260 C.ar    1  UNL1        0.0000
     28 C           2.2034    0.7529   -0.8886 C.ar    1  UNL1        0.0000
     29 H           5.5054   -0.3177   -2.3351 H       1  UNL1        0.0000
     30 H           5.1273   -2.4975   -1.1183 H       1  UNL1        0.0000
     31 H           7.8356   -0.9436   -0.1446 H       1  UNL1        0.0000
     32 H           7.0877    0.3571    1.9811 H       1  UNL1        0.0000
     33 H           4.5687    0.8149    2.1107 H       1  UNL1        0.0000
     34 H           2.2932   -1.3306    1.7060 H       1  UNL1        0.0000
     35 H          -1.1945    0.5498   -3.2626 H       1  UNL1        0.0000
     36 H          -5.6357    0.5574   -2.3632 H       1  UNL1        0.0000
     37 H          -6.5401   -0.0826   -0.3628 H       1  UNL1        0.0000
     38 H          -7.2819   -1.0174    1.7856 H       1  UNL1        0.0000
     39 H          -5.6215   -1.8128    3.4426 H       1  UNL1        0.0000
     40 H          -3.2263   -1.6655    2.9836 H       1  UNL1        0.0000
     41 H          -0.2965    2.4213   -2.3535 H       1  UNL1        0.0000
     42 H           2.0046    3.1115   -3.0495 H       1  UNL1        0.0000
     43 H           3.8591    1.9182   -1.8770 H       1  UNL1        0.0000
@<TRIPOS>BOND
     1     1     2    1
     2     2     3    2
     3     3     4    1
     4     4     5    2
     5     5     6    1
     6     6     7   ar
     7     7     8   ar
     8     8     9   ar
     9     9    10   ar
    10    10    11   ar
    11    11    12   ar
    12    12    13   ar
    13    13    14   ar
    14    14    15   ar
    15    15    16   ar
    16    16    17   ar
    17    17    18   ar
    18    18    19   ar
    19    19    20   ar
    20    20    21   ar
    21    21    22   ar
    22    11    23   ar
    23    23    24   ar
    24    24    25   ar
    25    25    26   ar
    26    26    27   ar
    27    27    28   ar
    28     5     1    1
    29    28     6   ar
    30    23     8   ar
    31    28    24   ar
    32    22    10   ar
    33    16    12   ar
    34    22    17   ar
    35     1    29    1
    36     1    30    1
    37     2    31    1
    38     3    32    1
    39     4    33    1
    40     7    34    1
    41    13    35    1
    42    15    36    1
    43    18    37    1
    44    19    38    1
    45    20    39    1
    46    21    40    1
    47    25    41    1
    48    26    42    1
    49    27    43    1
