@<TRIPOS>MOLECULE
*****
 42 43 0 0 0
SMALL
GASTEIGER

@<TRIPOS>ATOM
      1 C           2.7101   -2.3527   -0.6554 C.3     1  UNL1       -0.0306
      2 C           3.6293   -1.1898   -0.3313 C.3     1  UNL1        0.0897
      3 O           2.8636   -0.0912    0.1822 O.3     1  UNL1       -0.4638
      4 C           2.6314   -0.0942    1.5239 C.2     1  UNL1        0.3251
      5 O           3.0424   -0.9502    2.3004 O.2     1  UNL1       -0.2491
      6 C           1.7853    1.0929    1.9752 C.3     1  UNL1        0.1171
      7 N           1.2706    1.9326    0.8946 N.am    1  UNL1       -0.2546
      8 C           2.0172    3.0383    0.5140 C.2     1  UNL1        0.2580
      9 O           3.0611    3.3776    1.0723 O.2     1  UNL1       -0.2715
     10 C           1.5042    3.7705   -0.7201 C.3     1  UNL1        0.1658
     11 O           0.1202    3.7234   -1.0074 O.3     1  UNL1       -0.4809
     12 C          -0.4359    2.5023   -0.7443 C.ar    1  UNL1        0.1425
     13 C          -1.6195    2.2216   -1.4221 C.ar    1  UNL1       -0.0178
     14 C          -2.2836    1.0112   -1.2141 C.ar    1  UNL1       -0.0545
     15 C          -1.7847    0.0598   -0.3135 C.ar    1  UNL1       -0.0400
     16 C          -2.4804   -1.2919   -0.0645 C.3     1  UNL1       -0.0126
     17 C          -3.7568   -1.5025   -0.9101 C.3     1  UNL1       -0.0560
     18 C          -2.8931   -1.3975    1.4194 C.3     1  UNL1       -0.0560
     19 C          -1.5124   -2.4458   -0.4071 C.3     1  UNL1       -0.0560
     20 C          -0.5959    0.3821    0.3812 C.ar    1  UNL1       -0.0330
     21 C           0.0872    1.5939    0.1800 C.ar    1  UNL1        0.0791
     22 H           1.9237   -2.0391   -1.3500 H       1  UNL1        0.0262
     23 H           3.2706   -3.1771   -1.1048 H       1  UNL1        0.0262
     24 H           2.2094   -2.7203    0.2459 H       1  UNL1        0.0262
     25 H           4.4225   -1.4855    0.3647 H       1  UNL1        0.0694
     26 H           4.1176   -0.8398   -1.2466 H       1  UNL1        0.0694
     27 H           2.4215    1.6984    2.6308 H       1  UNL1        0.0584
     28 H           0.9508    0.7311    2.5845 H       1  UNL1        0.0584
     29 H           1.7651    4.8279   -0.6003 H       1  UNL1        0.0795
     30 H           2.0573    3.3922   -1.5887 H       1  UNL1        0.0795
     31 H          -2.0266    2.9473   -2.1220 H       1  UNL1        0.0655
     32 H          -3.1975    0.8408   -1.7768 H       1  UNL1        0.0622
     33 H          -4.2123   -2.4781   -0.7018 H       1  UNL1        0.0238
     34 H          -3.5389   -1.4716   -1.9841 H       1  UNL1        0.0238
     35 H          -4.5152   -0.7412   -0.6930 H       1  UNL1        0.0238
     36 H          -2.0299   -1.3697    2.0934 H       1  UNL1        0.0238
     37 H          -3.4227   -2.3370    1.6163 H       1  UNL1        0.0238
     38 H          -3.5585   -0.5736    1.7032 H       1  UNL1        0.0238
     39 H          -1.1696   -2.3777   -1.4464 H       1  UNL1        0.0238
     40 H          -0.6232   -2.4464    0.2326 H       1  UNL1        0.0238
     41 H          -1.9981   -3.4202   -0.2790 H       1  UNL1        0.0238
     42 H          -0.2064   -0.3507    1.0806 H       1  UNL1        0.0640
@<TRIPOS>BOND
     1     1     2    1
     2     2     3    1
     3     3     4    1
     4     4     5    2
     5     4     6    1
     6     6     7    1
     7     7     8   am
     8     8     9    2
     9     8    10    1
    10    10    11    1
    11    11    12    1
    12    12    13   ar
    13    13    14   ar
    14    14    15   ar
    15    15    16    1
    16    16    17    1
    17    16    18    1
    18    16    19    1
    19    15    20   ar
    20    20    21   ar
    21    21     7    1
    22    21    12   ar
    23     1    22    1
    24     1    23    1
    25     1    24    1
    26     2    25    1
    27     2    26    1
    28     6    27    1
    29     6    28    1
    30    10    29    1
    31    10    30    1
    32    13    31    1
    33    14    32    1
    34    17    33    1
    35    17    34    1
    36    17    35    1
    37    18    36    1
    38    18    37    1
    39    18    38    1
    40    19    39    1
    41    19    40    1
    42    19    41    1
    43    20    42    1
