@<TRIPOS>MOLECULE
*****
 26 26 0 0 0
SMALL
GASTEIGER

@<TRIPOS>ATOM
      1 C           4.1710   -1.3513   -1.1705 C.3     1  UNL1       -0.0306
      2 C           3.1741   -0.3198   -0.6794 C.3     1  UNL1        0.0897
      3 O           2.4802   -0.8693    0.4470 O.3     1  UNL1       -0.4643
      4 C           1.5206   -0.0487    0.9698 C.2     1  UNL1        0.3175
      5 O           1.2881    1.0865    0.5734 O.2     1  UNL1       -0.2499
      6 C           0.8432   -0.7521    2.1292 C.3     1  UNL1        0.0984
      7 S          -0.6614    0.1109    2.6793 S.3     1  UNL1       -0.0764
      8 C          -1.5729    0.0796    1.1853 C.ar    1  UNL1        0.1718
      9 N          -1.4172   -0.8982    0.3591 N.ar    1  UNL1       -0.1851
     10 C          -2.1458   -0.8601   -0.8087 C.ar    1  UNL1        0.2757
     11 O          -2.1148   -1.7577   -1.6445 O.2     1  UNL1       -0.2657
     12 C          -2.9991    0.3301   -1.0806 C.ar    1  UNL1        0.0424
     13 C          -3.1133    1.2932   -0.1538 C.ar    1  UNL1        0.1006
     14 N          -3.8882    2.4098   -0.3449 N.pl3   1  UNL1       -0.3444
     15 N          -2.4204    1.1272    1.0082 N.ar    1  UNL1       -0.3229
     16 H           4.8798   -1.6107   -0.3772 H       1  UNL1        0.0262
     17 H           3.6593   -2.2765   -1.4554 H       1  UNL1        0.0262
     18 H           4.7282   -0.9756   -2.0332 H       1  UNL1        0.0262
     19 H           2.4599   -0.0866   -1.4771 H       1  UNL1        0.0694
     20 H           3.7027    0.5914   -0.3780 H       1  UNL1        0.0694
     21 H           1.5452   -0.7817    2.9678 H       1  UNL1        0.0495
     22 H           0.5892   -1.7778    1.8450 H       1  UNL1        0.0495
     23 H          -3.4951    0.3535   -2.0402 H       1  UNL1        0.0706
     24 H          -4.3304    2.7326    0.5114 H       1  UNL1        0.1437
     25 H          -4.5630    2.3195   -1.1013 H       1  UNL1        0.1437
     26 H          -2.3198    1.9317    1.6105 H       1  UNL1        0.1690
@<TRIPOS>BOND
     1     1     2    1
     2     2     3    1
     3     3     4    1
     4     4     5    2
     5     4     6    1
     6     6     7    1
     7     7     8    1
     8     8     9   ar
     9     9    10   ar
    10    10    11    2
    11    10    12   ar
    12    12    13   ar
    13    13    14    1
    14    13    15   ar
    15    15     8   ar
    16     1    16    1
    17     1    17    1
    18     1    18    1
    19     2    19    1
    20     2    20    1
    21     6    21    1
    22     6    22    1
    23    12    23    1
    24    14    24    1
    25    14    25    1
    26    15    26    1
