@<TRIPOS>MOLECULE
*****
 40 40 0 0 0
SMALL
GASTEIGER

@<TRIPOS>ATOM
      1 C           6.2354    1.1304    1.9785 C.3     1  UNL1       -0.0306
      2 C           5.9823   -0.0735    1.0924 C.3     1  UNL1        0.0897
      3 O           4.5704   -0.3134    1.0569 O.3     1  UNL1       -0.4643
      4 C           4.2007   -1.3662    0.2721 C.2     1  UNL1        0.3174
      5 O           4.9750   -2.0881   -0.3441 O.2     1  UNL1       -0.2499
      6 C           2.7012   -1.5237    0.2622 C.3     1  UNL1        0.0971
      7 S           1.9703   -0.3484   -0.9202 S.3     1  UNL1       -0.0933
      8 C           0.2256   -0.6983   -0.7067 C.ar    1  UNL1        0.1172
      9 N          -0.0634   -1.7843    0.0489 N.ar    1  UNL1       -0.2236
     10 C          -1.3496   -2.1350    0.2200 C.ar    1  UNL1        0.1353
     11 N          -1.5357   -3.2533    1.0255 N.pl3   1  UNL1       -0.3421
     12 C          -2.4091   -1.3979   -0.3162 C.ar    1  UNL1        0.0956
     13 C          -3.7482   -1.8714   -0.1149 C.1     1  UNL1        0.1029
     14 N          -4.8304   -2.2710    0.0139 N.1     1  UNL1       -0.1907
     15 C          -2.1289   -0.2366   -1.0741 C.ar    1  UNL1       -0.0065
     16 C          -3.2549    0.6184   -1.6481 C.3     1  UNL1       -0.0227
     17 C          -3.7929    1.7777   -0.7718 C.3     1  UNL1       -0.0427
     18 C          -2.7543    2.8582   -0.4732 C.3     1  UNL1       -0.0624
     19 C          -4.4454    1.3143    0.5301 C.3     1  UNL1       -0.0624
     20 C          -0.7684    0.0920   -1.2966 C.ar    1  UNL1        0.0881
     21 C          -0.3978    1.1941   -2.1394 C.1     1  UNL1        0.1021
     22 N          -0.1317    2.0846   -2.8345 N.1     1  UNL1       -0.1908
     23 H           7.3043    1.3536    2.0376 H       1  UNL1        0.0262
     24 H           5.7109    2.0105    1.5919 H       1  UNL1        0.0262
     25 H           5.8548    0.9517    2.9896 H       1  UNL1        0.0262
     26 H           6.3493    0.1288    0.0799 H       1  UNL1        0.0694
     27 H           6.4953   -0.9501    1.5034 H       1  UNL1        0.0694
     28 H           2.3191   -1.3617    1.2757 H       1  UNL1        0.0494
     29 H           2.4723   -2.5547   -0.0274 H       1  UNL1        0.0494
     30 H          -0.6274   -3.6456    1.2616 H       1  UNL1        0.1437
     31 H          -2.1581   -3.9535    0.6336 H       1  UNL1        0.1437
     32 H          -2.9377    1.0299   -2.6150 H       1  UNL1        0.0316
     33 H          -4.0962   -0.0323   -1.9201 H       1  UNL1        0.0316
     34 H          -4.5843    2.2609   -1.3616 H       1  UNL1        0.0299
     35 H          -3.2131    3.6922    0.0699 H       1  UNL1        0.0232
     36 H          -2.3407    3.2677   -1.3993 H       1  UNL1        0.0232
     37 H          -1.9351    2.4772    0.1441 H       1  UNL1        0.0232
     38 H          -4.8913    2.1639    1.0595 H       1  UNL1        0.0232
     39 H          -3.7212    0.8510    1.2069 H       1  UNL1        0.0232
     40 H          -5.2512    0.6020    0.3302 H       1  UNL1        0.0232
@<TRIPOS>BOND
     1     1     2    1
     2     2     3    1
     3     3     4    1
     4     4     5    2
     5     4     6    1
     6     6     7    1
     7     7     8    1
     8     8     9   ar
     9     9    10   ar
    10    10    11    1
    11    10    12   ar
    12    12    13    1
    13    13    14    3
    14    12    15   ar
    15    15    16    1
    16    16    17    1
    17    17    18    1
    18    17    19    1
    19    15    20   ar
    20    20    21    1
    21    21    22    3
    22    20     8   ar
    23     1    23    1
    24     1    24    1
    25     1    25    1
    26     2    26    1
    27     2    27    1
    28     6    28    1
    29     6    29    1
    30    11    30    1
    31    11    31    1
    32    16    32    1
    33    16    33    1
    34    17    34    1
    35    18    35    1
    36    18    36    1
    37    18    37    1
    38    19    38    1
    39    19    39    1
    40    19    40    1
