@<TRIPOS>MOLECULE
*****
 32 34 0 0 0
SMALL
GASTEIGER

@<TRIPOS>ATOM
      1 C           3.2516    0.3922   -1.5101 C.3     1  UNL1       -0.0306
      2 C           2.9562    1.1969   -0.2596 C.3     1  UNL1        0.0897
      3 O           2.5405    0.2860    0.7645 O.3     1  UNL1       -0.4643
      4 C           2.1235    0.8762    1.9178 C.2     1  UNL1        0.3174
      5 O           2.1519    2.0867    2.1184 O.2     1  UNL1       -0.2499
      6 C           1.6856   -0.1185    2.9735 C.3     1  UNL1        0.0972
      7 S           1.1239   -1.7260    2.3427 S.3     1  UNL1       -0.0909
      8 C          -0.0845   -1.2020    1.2013 C.ar    1  UNL1        0.1427
      9 N          -0.6973   -0.0648    1.3490 N.ar    1  UNL1       -0.2352
     10 C          -1.6593    0.3121    0.3795 C.ar    1  UNL1        0.0891
     11 C          -2.3061    1.5382    0.5236 C.ar    1  UNL1       -0.0342
     12 C          -3.2605    1.9499   -0.4114 C.ar    1  UNL1       -0.0596
     13 C          -3.5777    1.1371   -1.5029 C.ar    1  UNL1       -0.0597
     14 C          -2.9440   -0.0938   -1.6724 C.ar    1  UNL1       -0.0357
     15 C          -1.9928   -0.4911   -0.7314 C.ar    1  UNL1        0.0749
     16 N          -1.3035   -1.7052   -0.8250 N.ar    1  UNL1       -0.2780
     17 C          -1.3449   -2.7211   -1.7296 C.ar    1  UNL1        0.1247
     18 N          -0.4860   -3.6554   -1.3785 N.ar    1  UNL1       -0.1371
     19 N           0.1344   -3.2444   -0.2143 N.ar    1  UNL1       -0.1269
     20 C          -0.3709   -2.0718    0.1032 C.ar    1  UNL1        0.1935
     21 H           4.0343   -0.3486   -1.3162 H       1  UNL1        0.0262
     22 H           2.3624   -0.1610   -1.8306 H       1  UNL1        0.0262
     23 H           3.5759    1.0439   -2.3262 H       1  UNL1        0.0262
     24 H           2.1574    1.9180   -0.4667 H       1  UNL1        0.0694
     25 H           3.8583    1.7260    0.0662 H       1  UNL1        0.0694
     26 H           0.8740    0.3283    3.5565 H       1  UNL1        0.0494
     27 H           2.5351   -0.2919    3.6409 H       1  UNL1        0.0494
     28 H          -2.0646    2.1789    1.3686 H       1  UNL1        0.0639
     29 H          -3.7577    2.9095   -0.2864 H       1  UNL1        0.0618
     30 H          -4.3228    1.4696   -2.2229 H       1  UNL1        0.0618
     31 H          -3.2069   -0.7063   -2.5295 H       1  UNL1        0.0639
     32 H          -1.9857   -2.7474   -2.5982 H       1  UNL1        0.1052
@<TRIPOS>BOND
     1     1     2    1
     2     2     3    1
     3     3     4    1
     4     4     5    2
     5     4     6    1
     6     6     7    1
     7     7     8    1
     8     8     9   ar
     9     9    10   ar
    10    10    11   ar
    11    11    12   ar
    12    12    13   ar
    13    13    14   ar
    14    14    15   ar
    15    15    16   ar
    16    16    17   ar
    17    17    18   ar
    18    18    19   ar
    19    19    20   ar
    20    20     8   ar
    21    15    10   ar
    22    20    16   ar
    23     1    21    1
    24     1    22    1
    25     1    23    1
    26     2    24    1
    27     2    25    1
    28     6    26    1
    29     6    27    1
    30    11    28    1
    31    12    29    1
    32    13    30    1
    33    14    31    1
    34    17    32    1
