@<TRIPOS>MOLECULE
*****
 38 40 0 0 0
SMALL
GASTEIGER

@<TRIPOS>ATOM
      1 C           5.8496   -0.5597   -0.7727 C.3     1  UNL1       -0.0305
      2 C           5.0917   -0.2553    0.5057 C.3     1  UNL1        0.0915
      3 O           3.7191    0.0448    0.2077 O.3     1  UNL1       -0.4484
      4 C           2.8667   -1.0214    0.1240 C.2     1  UNL1        0.4239
      5 O           3.2624   -2.1717    0.2834 O.2     1  UNL1       -0.2226
      6 N           1.5630   -0.6623   -0.1582 N.ar    1  UNL1       -0.1957
      7 C           0.4952   -1.5998   -0.2234 C.ar    1  UNL1        0.3397
      8 O           0.5391   -2.8162   -0.1149 O.2     1  UNL1       -0.2458
      9 N          -0.6838   -0.8599   -0.4768 N.ar    1  UNL1       -0.2872
     10 C          -1.9790   -1.4700   -0.6559 C.3     1  UNL1        0.0545
     11 C          -3.0892   -0.9196    0.2129 C.ar    1  UNL1       -0.0093
     12 C          -4.2421   -0.4040   -0.4126 C.ar    1  UNL1       -0.0555
     13 C          -5.3028    0.1083    0.3371 C.ar    1  UNL1       -0.0614
     14 C          -5.2375    0.1045    1.7262 C.ar    1  UNL1       -0.0604
     15 C          -4.1149   -0.4200    2.3644 C.ar    1  UNL1       -0.0431
     16 C          -3.0496   -0.9354    1.6167 C.ar    1  UNL1        0.0458
     17 CL         -1.7212   -1.5981    2.4979 Cl      1  UNL1       -0.0832
     18 C          -0.3500    0.4894   -0.6268 C.ar    1  UNL1        0.0708
     19 C          -1.1551    1.5701   -0.9351 C.ar    1  UNL1       -0.0360
     20 C          -0.5530    2.8268   -1.0173 C.ar    1  UNL1       -0.0597
     21 C           0.8254    2.9749   -0.7985 C.ar    1  UNL1       -0.0597
     22 C           1.6283    1.8684   -0.4970 C.ar    1  UNL1       -0.0355
     23 C           1.0272    0.6232   -0.4144 C.ar    1  UNL1        0.0809
     24 H           5.7569    0.2703   -1.4810 H       1  UNL1        0.0262
     25 H           6.9097   -0.7289   -0.5641 H       1  UNL1        0.0262
     26 H           5.4450   -1.4476   -1.2686 H       1  UNL1        0.0262
     27 H           5.1759   -1.0728    1.2307 H       1  UNL1        0.0695
     28 H           5.5156    0.6362    0.9794 H       1  UNL1        0.0695
     29 H          -2.2304   -1.3576   -1.7182 H       1  UNL1        0.0543
     30 H          -1.9102   -2.5502   -0.4792 H       1  UNL1        0.0543
     31 H          -4.3216   -0.3959   -1.4986 H       1  UNL1        0.0621
     32 H          -6.1820    0.5060   -0.1645 H       1  UNL1        0.0618
     33 H          -6.0623    0.4998    2.3137 H       1  UNL1        0.0618
     34 H          -4.0769   -0.4323    3.4513 H       1  UNL1        0.0632
     35 H          -2.2184    1.4708   -1.1088 H       1  UNL1        0.0639
     36 H          -1.1568    3.7009   -1.2523 H       1  UNL1        0.0618
     37 H           1.2762    3.9632   -0.8675 H       1  UNL1        0.0618
     38 H           2.6895    2.0214   -0.3446 H       1  UNL1        0.0639
@<TRIPOS>BOND
     1     1     2    1
     2     2     3    1
     3     3     4    1
     4     4     5    2
     5     4     6   am
     6     6     7   ar
     7     7     8    2
     8     7     9   ar
     9     9    10    1
    10    10    11    1
    11    11    12   ar
    12    12    13   ar
    13    13    14   ar
    14    14    15   ar
    15    15    16   ar
    16    16    17    1
    17     9    18   ar
    18    18    19   ar
    19    19    20   ar
    20    20    21   ar
    21    21    22   ar
    22    22    23   ar
    23    23     6   ar
    24    16    11   ar
    25    23    18   ar
    26     1    24    1
    27     1    25    1
    28     1    26    1
    29     2    27    1
    30     2    28    1
    31    10    29    1
    32    10    30    1
    33    12    31    1
    34    13    32    1
    35    14    33    1
    36    15    34    1
    37    19    35    1
    38    20    36    1
    39    21    37    1
    40    22    38    1
