@<TRIPOS>MOLECULE
*****
 40 41 0 0 0
SMALL
GASTEIGER

@<TRIPOS>ATOM
      1 C           5.8968   -1.2032   -1.6814 C.3     1  UNL1       -0.0305
      2 C           4.8788   -1.8697   -0.7755 C.3     1  UNL1        0.0913
      3 O           3.5733   -1.3244   -1.0117 O.3     1  UNL1       -0.4505
      4 C           3.2592   -0.2021   -0.3099 C.2     1  UNL1        0.4029
      5 O           4.0181    0.3506    0.4770 O.2     1  UNL1       -0.2263
      6 N           1.9866    0.2454   -0.5935 N.am    1  UNL1       -0.2644
      7 C           1.1257   -0.4096   -1.5851 C.3     1  UNL1        0.0337
      8 C          -0.1853    0.3549   -1.8070 C.3     1  UNL1        0.0321
      9 N          -0.8465    0.6345   -0.5296 N.am    1  UNL1       -0.2825
     10 C          -1.7802   -0.3051   -0.0995 C.2     1  UNL1        0.3050
     11 O          -1.9384   -1.3751   -0.6874 O.2     1  UNL1       -0.2524
     12 N          -2.5274    0.0344    1.0252 N.am    1  UNL1       -0.2811
     13 C          -3.0867    1.3891    1.1365 C.3     1  UNL1        0.0396
     14 C          -4.3286    1.4375    2.0368 C.3     1  UNL1        0.0635
     15 O          -5.3528    0.5245    1.6216 O.3     1  UNL1       -0.3767
     16 C          -4.8512   -0.7510    1.1832 C.3     1  UNL1        0.0635
     17 C          -3.3953   -1.0070    1.5828 C.3     1  UNL1        0.0396
     18 C          -0.0012    1.3294    0.4570 C.3     1  UNL1        0.0321
     19 C           1.4756    1.4599    0.0351 C.3     1  UNL1        0.0337
     20 H           5.9612   -0.1295   -1.4790 H       1  UNL1        0.0262
     21 H           6.8877   -1.6449   -1.5423 H       1  UNL1        0.0262
     22 H           5.6060   -1.3133   -2.7315 H       1  UNL1        0.0262
     23 H           4.8251   -2.9383   -1.0076 H       1  UNL1        0.0695
     24 H           5.1624   -1.7842    0.2798 H       1  UNL1        0.0695
     25 H           0.9231   -1.4231   -1.2195 H       1  UNL1        0.0481
     26 H           1.6768   -0.4962   -2.5283 H       1  UNL1        0.0481
     27 H          -0.8472   -0.2055   -2.4762 H       1  UNL1        0.0480
     28 H           0.0112    1.3218   -2.2859 H       1  UNL1        0.0480
     29 H          -3.3547    1.7257    0.1275 H       1  UNL1        0.0488
     30 H          -2.3267    2.0600    1.5419 H       1  UNL1        0.0488
     31 H          -4.7586    2.4446    2.0294 H       1  UNL1        0.0575
     32 H          -4.0660    1.2071    3.0760 H       1  UNL1        0.0575
     33 H          -4.9611   -0.7836    0.0937 H       1  UNL1        0.0575
     34 H          -5.5032   -1.5222    1.6051 H       1  UNL1        0.0575
     35 H          -3.0747   -2.0059    1.2703 H       1  UNL1        0.0488
     36 H          -3.2857   -0.9579    2.6725 H       1  UNL1        0.0488
     37 H          -0.0520    0.7907    1.4108 H       1  UNL1        0.0480
     38 H          -0.4088    2.3341    0.6035 H       1  UNL1        0.0480
     39 H           1.5795    2.2604   -0.7077 H       1  UNL1        0.0481
     40 H           2.0849    1.7471    0.8982 H       1  UNL1        0.0481
@<TRIPOS>BOND
     1     1     2    1
     2     2     3    1
     3     3     4    1
     4     4     5    2
     5     4     6   am
     6     6     7    1
     7     7     8    1
     8     8     9    1
     9     9    10   am
    10    10    11    2
    11    10    12   am
    12    12    13    1
    13    13    14    1
    14    14    15    1
    15    15    16    1
    16    16    17    1
    17     9    18    1
    18    18    19    1
    19    19     6    1
    20    17    12    1
    21     1    20    1
    22     1    21    1
    23     1    22    1
    24     2    23    1
    25     2    24    1
    26     7    25    1
    27     7    26    1
    28     8    27    1
    29     8    28    1
    30    13    29    1
    31    13    30    1
    32    14    31    1
    33    14    32    1
    34    16    33    1
    35    16    34    1
    36    17    35    1
    37    17    36    1
    38    18    37    1
    39    18    38    1
    40    19    39    1
    41    19    40    1
