@<TRIPOS>MOLECULE
*****
 39 40 0 0 0
SMALL
GASTEIGER

@<TRIPOS>ATOM
      1 C           6.6801    0.3068    0.3373 C.3     1  UNL1       -0.0305
      2 C           5.7984   -0.1608   -0.8054 C.3     1  UNL1        0.0913
      3 O           4.4581   -0.3762   -0.3410 O.3     1  UNL1       -0.4505
      4 C           3.6455    0.7151   -0.3354 C.2     1  UNL1        0.4029
      5 O           3.9945    1.8326   -0.6956 O.2     1  UNL1       -0.2263
      6 N           2.3781    0.4155    0.1198 N.am    1  UNL1       -0.2644
      7 C           1.9965   -0.9243    0.5703 C.3     1  UNL1        0.0337
      8 C           0.6698   -0.9439    1.3379 C.3     1  UNL1        0.0321
      9 N          -0.4118   -0.2756    0.6070 N.am    1  UNL1       -0.2824
     10 C          -1.7185   -0.6909    0.8471 C.2     1  UNL1        0.3066
     11 O          -1.9692   -1.5327    1.7052 O.2     1  UNL1       -0.2523
     12 N          -2.6567   -0.0894    0.0427 N.am    1  UNL1       -0.2680
     13 C          -4.0661   -0.2044    0.1048 C.ar    1  UNL1        0.0531
     14 C          -4.7398   -0.8095    1.1694 C.ar    1  UNL1       -0.0390
     15 C          -6.1375   -0.8822    1.1785 C.ar    1  UNL1       -0.0599
     16 C          -6.8789   -0.3468    0.1276 C.ar    1  UNL1       -0.0603
     17 C          -6.2243    0.2678   -0.9372 C.ar    1  UNL1       -0.0416
     18 C          -4.8286    0.3407   -0.9461 C.ar    1  UNL1        0.0622
     19 CL         -4.0621    1.1221   -2.2898 Cl      1  UNL1       -0.0816
     20 C          -0.0370    0.9069   -0.1839 C.3     1  UNL1        0.0321
     21 C           1.3542    1.4540    0.1609 C.3     1  UNL1        0.0337
     22 H           6.6463   -0.4080    1.1661 H       1  UNL1        0.0262
     23 H           6.3359    1.2681    0.7319 H       1  UNL1        0.0262
     24 H           7.7170    0.4164    0.0073 H       1  UNL1        0.0262
     25 H           5.8223    0.5415   -1.6466 H       1  UNL1        0.0695
     26 H           6.1640   -1.1222   -1.1810 H       1  UNL1        0.0695
     27 H           1.9154   -1.5457   -0.3297 H       1  UNL1        0.0481
     28 H           2.7955   -1.3409    1.1933 H       1  UNL1        0.0481
     29 H           0.7791   -0.4144    2.2923 H       1  UNL1        0.0480
     30 H           0.3927   -1.9789    1.5660 H       1  UNL1        0.0480
     31 H          -2.3129    0.3431   -0.8024 H       1  UNL1        0.1564
     32 H          -4.2050   -1.2306    2.0157 H       1  UNL1        0.0637
     33 H          -6.6443   -1.3593    2.0146 H       1  UNL1        0.0618
     34 H          -7.9644   -0.4067    0.1410 H       1  UNL1        0.0618
     35 H          -6.8046    0.6892   -1.7538 H       1  UNL1        0.0633
     36 H          -0.0621    0.5972   -1.2356 H       1  UNL1        0.0480
     37 H          -0.7850    1.6943   -0.0425 H       1  UNL1        0.0480
     38 H           1.3552    1.8555    1.1817 H       1  UNL1        0.0481
     39 H           1.6100    2.2764   -0.5152 H       1  UNL1        0.0481
@<TRIPOS>BOND
     1     1     2    1
     2     2     3    1
     3     3     4    1
     4     4     5    2
     5     4     6   am
     6     6     7    1
     7     7     8    1
     8     8     9    1
     9     9    10   am
    10    10    11    2
    11    10    12   am
    12    12    13    1
    13    13    14   ar
    14    14    15   ar
    15    15    16   ar
    16    16    17   ar
    17    17    18   ar
    18    18    19    1
    19     9    20    1
    20    20    21    1
    21    21     6    1
    22    18    13   ar
    23     1    22    1
    24     1    23    1
    25     1    24    1
    26     2    25    1
    27     2    26    1
    28     7    27    1
    29     7    28    1
    30     8    29    1
    31     8    30    1
    32    12    31    1
    33    14    32    1
    34    15    33    1
    35    16    34    1
    36    17    35    1
    37    20    36    1
    38    20    37    1
    39    21    38    1
    40    21    39    1
