@<TRIPOS>MOLECULE
*****
 37 38 0 0 0
SMALL
GASTEIGER

@<TRIPOS>ATOM
      1 C          -6.9368    0.5373   -0.9312 C.3     1  UNL1       -0.0305
      2 C          -6.5795   -0.1286    0.3844 C.3     1  UNL1        0.0913
      3 O          -5.3769    0.4447    0.9200 O.3     1  UNL1       -0.4504
      4 C          -4.2104   -0.1011    0.4827 C.2     1  UNL1        0.4045
      5 O          -4.1382   -1.0179   -0.3205 O.2     1  UNL1       -0.2261
      6 N          -3.1832    0.5593    1.0954 N.am    1  UNL1       -0.2511
      7 C          -1.8011    0.3489    0.9569 C.ar    1  UNL1        0.0399
      8 C          -0.9512    1.1742    1.7028 C.ar    1  UNL1       -0.0394
      9 C           0.4364    1.0276    1.6174 C.ar    1  UNL1       -0.0424
     10 C           0.9924    0.0574    0.7749 C.ar    1  UNL1        0.1008
     11 C           2.4682   -0.0411    0.7326 C.2     1  UNL1        0.3480
     12 O           3.1632    0.1042    1.7281 O.2     1  UNL1       -0.2444
     13 O           2.8765   -0.1994   -0.5760 O.3     1  UNL1       -0.4223
     14 C           4.2620   -0.2980   -0.7072 C.ar    1  UNL1        0.1320
     15 C           4.8855   -1.5305   -0.5198 C.ar    1  UNL1       -0.0192
     16 C           6.2640   -1.6295   -0.7030 C.ar    1  UNL1       -0.0583
     17 C           7.0005   -0.5050   -1.0839 C.ar    1  UNL1       -0.0615
     18 C           6.3606    0.7205   -1.2870 C.ar    1  UNL1       -0.0583
     19 C           4.9823    0.8262   -1.1052 C.ar    1  UNL1       -0.0192
     20 C           0.1453   -0.7821    0.0464 C.ar    1  UNL1        0.1326
     21 O           0.6614   -1.7821   -0.7309 O.3     1  UNL1       -0.5059
     22 C          -1.2443   -0.6327    0.1311 C.ar    1  UNL1        0.0020
     23 H          -6.1581    0.3691   -1.6817 H       1  UNL1        0.0262
     24 H          -7.0254    1.6210   -0.8019 H       1  UNL1        0.0262
     25 H          -7.8836    0.1494   -1.3176 H       1  UNL1        0.0262
     26 H          -7.3732    0.0545    1.1162 H       1  UNL1        0.0695
     27 H          -6.4894   -1.2154    0.2742 H       1  UNL1        0.0695
     28 H          -3.4961    1.2888    1.7212 H       1  UNL1        0.1582
     29 H          -1.3532    1.9399    2.3622 H       1  UNL1        0.0636
     30 H           1.0842    1.6729    2.2085 H       1  UNL1        0.0627
     31 H           4.3051   -2.4009   -0.2301 H       1  UNL1        0.0654
     32 H           6.7648   -2.5816   -0.5496 H       1  UNL1        0.0619
     33 H           8.0756   -0.5844   -1.2243 H       1  UNL1        0.0618
     34 H           6.9373    1.5911   -1.5875 H       1  UNL1        0.0619
     35 H           4.4780    1.7732   -1.2676 H       1  UNL1        0.0654
     36 H          -0.0627   -2.2467   -1.1851 H       1  UNL1        0.2922
     37 H          -1.8799   -1.2966   -0.4446 H       1  UNL1        0.0673
@<TRIPOS>BOND
     1     1     2    1
     2     2     3    1
     3     3     4    1
     4     4     5    2
     5     4     6   am
     6     6     7    1
     7     7     8   ar
     8     8     9   ar
     9     9    10   ar
    10    10    11    1
    11    11    12    2
    12    11    13    1
    13    13    14    1
    14    14    15   ar
    15    15    16   ar
    16    16    17   ar
    17    17    18   ar
    18    18    19   ar
    19    10    20   ar
    20    20    21    1
    21    20    22   ar
    22    22     7   ar
    23    19    14   ar
    24     1    23    1
    25     1    24    1
    26     1    25    1
    27     2    26    1
    28     2    27    1
    29     6    28    1
    30     8    29    1
    31     9    30    1
    32    15    31    1
    33    16    32    1
    34    17    33    1
    35    18    34    1
    36    19    35    1
    37    21    36    1
    38    22    37    1
