@<TRIPOS>MOLECULE
*****
 41 43 0 0 0
SMALL
GASTEIGER

@<TRIPOS>ATOM
      1 C           7.7557    1.2921    0.3527 C.3     1  UNL1       -0.0305
      2 C           6.7952    0.1584    0.0504 C.3     1  UNL1        0.0913
      3 O           5.4608    0.6796    0.0944 O.3     1  UNL1       -0.4504
      4 C           4.4912   -0.2405   -0.1608 C.2     1  UNL1        0.4045
      5 O           4.7135   -1.4151   -0.4089 O.2     1  UNL1       -0.2261
      6 N           3.2829    0.3916   -0.0856 N.am    1  UNL1       -0.2511
      7 C           2.0003   -0.1481   -0.2732 C.ar    1  UNL1        0.0373
      8 C           1.7576   -1.4886   -0.5811 C.ar    1  UNL1       -0.0383
      9 C           0.4463   -1.9527   -0.7521 C.ar    1  UNL1       -0.0337
     10 C          -0.6400   -1.0889   -0.6205 C.ar    1  UNL1        0.0783
     11 N          -1.9333   -1.5933   -0.7904 N.ar    1  UNL1       -0.2335
     12 C          -2.9316   -0.7760   -0.6903 C.ar    1  UNL1        0.1129
     13 N          -2.7980    0.5758   -0.4248 N.ar    1  UNL1       -0.2962
     14 C          -1.5517    1.1427   -0.1806 C.ar    1  UNL1        0.2619
     15 O          -1.3728    2.3148    0.1410 O.2     1  UNL1       -0.2669
     16 C          -0.3924    0.2447   -0.3155 C.ar    1  UNL1        0.0666
     17 C           0.9139    0.7213   -0.1399 C.ar    1  UNL1       -0.0260
     18 C          -3.9759    1.4254   -0.2892 C.3     1  UNL1        0.0278
     19 C          -4.7190    1.1856    1.0246 C.3     1  UNL1       -0.0348
     20 C          -4.7887   -0.2722    1.4818 C.3     1  UNL1       -0.0511
     21 C          -5.1943   -1.2817    0.4084 C.3     1  UNL1       -0.0462
     22 C          -4.3358   -1.3309   -0.8583 C.3     1  UNL1        0.0057
     23 H           7.6397    2.1005   -0.3769 H       1  UNL1        0.0262
     24 H           8.7915    0.9423    0.3308 H       1  UNL1        0.0262
     25 H           7.5479    1.7209    1.3386 H       1  UNL1        0.0262
     26 H           7.0023   -0.2451   -0.9471 H       1  UNL1        0.0695
     27 H           6.9089   -0.6319    0.8009 H       1  UNL1        0.0695
     28 H           3.3606    1.3749    0.1361 H       1  UNL1        0.1582
     29 H           2.5659   -2.2051   -0.6950 H       1  UNL1        0.0637
     30 H           0.2730   -2.9998   -0.9890 H       1  UNL1        0.0639
     31 H           1.0666    1.7710    0.0997 H       1  UNL1        0.0644
     32 H          -4.6462    1.2415   -1.1351 H       1  UNL1        0.0493
     33 H          -3.6996    2.4838   -0.3576 H       1  UNL1        0.0493
     34 H          -4.2282    1.7611    1.8198 H       1  UNL1        0.0282
     35 H          -5.7330    1.5934    0.9333 H       1  UNL1        0.0282
     36 H          -5.4985   -0.3404    2.3157 H       1  UNL1        0.0266
     37 H          -3.8177   -0.5658    1.9014 H       1  UNL1        0.0266
     38 H          -6.2382   -1.1082    0.1190 H       1  UNL1        0.0269
     39 H          -5.1774   -2.2775    0.8704 H       1  UNL1        0.0269
     40 H          -4.8316   -0.7891   -1.6715 H       1  UNL1        0.0343
     41 H          -4.2701   -2.3704   -1.2041 H       1  UNL1        0.0343
@<TRIPOS>BOND
     1     1     2    1
     2     2     3    1
     3     3     4    1
     4     4     5    2
     5     4     6   am
     6     6     7    1
     7     7     8   ar
     8     8     9   ar
     9     9    10   ar
    10    10    11   ar
    11    11    12   ar
    12    12    13   ar
    13    13    14   ar
    14    14    15    2
    15    14    16   ar
    16    16    17   ar
    17    13    18    1
    18    18    19    1
    19    19    20    1
    20    20    21    1
    21    21    22    1
    22    17     7   ar
    23    16    10   ar
    24    22    12    1
    25     1    23    1
    26     1    24    1
    27     1    25    1
    28     2    26    1
    29     2    27    1
    30     6    28    1
    31     8    29    1
    32     9    30    1
    33    17    31    1
    34    18    32    1
    35    18    33    1
    36    19    34    1
    37    19    35    1
    38    20    36    1
    39    20    37    1
    40    21    38    1
    41    21    39    1
    42    22    40    1
    43    22    41    1
