@<TRIPOS>MOLECULE
*****
 30 30 0 0 0
SMALL
GASTEIGER

@<TRIPOS>ATOM
      1 C          -5.8657    0.9761   -0.5416 C.3     1  UNL1       -0.0305
      2 C          -5.2768    0.5054    0.7751 C.3     1  UNL1        0.0913
      3 O          -4.0607   -0.2206    0.5436 O.3     1  UNL1       -0.4495
      4 C          -2.9302    0.5347    0.4633 C.2     1  UNL1        0.4199
      5 O          -2.9001    1.7528    0.5670 O.2     1  UNL1       -0.2246
      6 N          -1.8618   -0.3019    0.2475 N.am    1  UNL1       -0.1720
      7 N          -0.5923    0.1798    0.1676 N.2     1  UNL1       -0.1825
      8 C           0.3904   -0.6470   -0.0606 C.2     1  UNL1        0.0565
      9 C           0.2084   -2.1325   -0.2916 C.3     1  UNL1       -0.0209
     10 C           1.7571   -0.0453   -0.0837 C.2     1  UNL1       -0.0357
     11 C           2.9010   -0.7390   -0.0160 C.2     1  UNL1       -0.0176
     12 C           4.1790   -0.1115   -0.0284 C.ar    1  UNL1        0.1277
     13 C           4.5565    1.2266   -0.1018 C.ar    1  UNL1       -0.0165
     14 C           5.9707    1.2877   -0.0772 C.ar    1  UNL1       -0.0233
     15 C           6.3980   -0.0109    0.0097 C.ar    1  UNL1        0.0925
     16 O           5.3395   -0.8545    0.0393 O.2     1  UNL1       -0.4635
     17 H          -6.0196    0.1292   -1.2184 H       1  UNL1        0.0262
     18 H          -6.8241    1.4777   -0.3804 H       1  UNL1        0.0262
     19 H          -5.1891    1.6706   -1.0495 H       1  UNL1        0.0262
     20 H          -5.1196    1.3405    1.4673 H       1  UNL1        0.0695
     21 H          -5.9728   -0.1860    1.2615 H       1  UNL1        0.0695
     22 H          -2.0585   -1.2916    0.2153 H       1  UNL1        0.1807
     23 H          -0.0167   -2.6201    0.6609 H       1  UNL1        0.0293
     24 H          -0.6155   -2.3035   -0.9909 H       1  UNL1        0.0293
     25 H           1.0906   -2.5985   -0.7331 H       1  UNL1        0.0293
     26 H           1.7467    1.0403   -0.1299 H       1  UNL1        0.0637
     27 H           2.9140   -1.8196    0.0688 H       1  UNL1        0.0655
     28 H           3.8844    2.0715   -0.1651 H       1  UNL1        0.0655
     29 H           6.5958    2.1683   -0.1172 H       1  UNL1        0.0649
     30 H           7.3711   -0.4791    0.0578 H       1  UNL1        0.1029
@<TRIPOS>BOND
     1     1     2    1
     2     2     3    1
     3     3     4    1
     4     4     5    2
     5     4     6   am
     6     6     7    1
     7     7     8    2
     8     8     9    1
     9     8    10    1
    10    10    11    2
    11    11    12    1
    12    12    13   ar
    13    13    14   ar
    14    14    15   ar
    15    15    16   ar
    16    16    12   ar
    17     1    17    1
    18     1    18    1
    19     1    19    1
    20     2    20    1
    21     2    21    1
    22     6    22    1
    23     9    23    1
    24     9    24    1
    25     9    25    1
    26    10    26    1
    27    11    27    1
    28    13    28    1
    29    14    29    1
    30    15    30    1
