@<TRIPOS>MOLECULE
*****
 31 35 0 0 0
SMALL
GASTEIGER

@<TRIPOS>ATOM
      1 SI          5.1651   -0.0861   -1.0246 Si      1  UNL1        0.0000
      2 C           6.3092   -0.1540    0.4574 C.2     1  UNL1        0.0000
      3 C           5.6095   -0.1717    1.6051 C.2     1  UNL1        0.0000
      4 C           4.1605   -0.1356    1.4548 C.2     1  UNL1        0.0000
      5 C           3.6958   -0.0888    0.1857 C.2     1  UNL1        0.0000
      6 C           2.3278   -0.0467   -0.2303 C.ar    1  UNL1        0.0000
      7 C           1.8077    0.0029   -1.5324 C.ar    1  UNL1        0.0000
      8 C           0.3883    0.0338   -1.5308 C.ar    1  UNL1        0.0000
      9 S          -1.0156    0.0944   -2.5523 S.2     1  UNL1        0.0000
     10 C          -2.1791    0.0825   -1.2863 C.ar    1  UNL1        0.0000
     11 C          -3.5410    0.1002   -0.8795 C.ar    1  UNL1        0.0000
     12 C          -4.7754    0.1468   -1.5494 C.ar    1  UNL1        0.0000
     13 C          -5.9540    0.1503   -0.7963 C.ar    1  UNL1        0.0000
     14 C          -5.9112    0.1084    0.5964 C.ar    1  UNL1        0.0000
     15 C          -4.6939    0.0617    1.2849 C.ar    1  UNL1        0.0000
     16 C          -3.5120    0.0580    0.5329 C.ar    1  UNL1        0.0000
     17 N          -2.1971    0.0165    0.9704 N.ar    1  UNL1        0.0000
     18 C          -1.4453    0.0330   -0.1461 C.ar    1  UNL1        0.0000
     19 C          -0.0872    0.0066   -0.2567 C.ar    1  UNL1        0.0000
     20 S           1.0378   -0.0543    0.9799 S.2     1  UNL1        0.0000
     21 H           5.2304   -1.3205   -1.8468 H       1  UNL1        0.0000
     22 H           5.2854    1.1897   -1.7743 H       1  UNL1        0.0000
     23 H           7.3821   -0.1744    0.3503 H       1  UNL1        0.0000
     24 H           6.0639   -0.2101    2.5879 H       1  UNL1        0.0000
     25 H           3.5459   -0.1478    2.3467 H       1  UNL1        0.0000
     26 H           2.3976    0.0168   -2.4394 H       1  UNL1        0.0000
     27 H          -4.8152    0.1796   -2.6340 H       1  UNL1        0.0000
     28 H          -6.9143    0.1862   -1.3052 H       1  UNL1        0.0000
     29 H          -6.8417    0.1121    1.1602 H       1  UNL1        0.0000
     30 H          -4.6740    0.0293    2.3698 H       1  UNL1        0.0000
     31 H          -1.8499   -0.0190    1.9203 H       1  UNL1        0.0000
@<TRIPOS>BOND
     1     1     2    1
     2     2     3    2
     3     3     4    1
     4     4     5    2
     5     5     6    1
     6     6     7   ar
     7     7     8   ar
     8     8     9   ar
     9     9    10   ar
    10    10    11   ar
    11    11    12   ar
    12    12    13   ar
    13    13    14   ar
    14    14    15   ar
    15    15    16   ar
    16    16    17   ar
    17    17    18   ar
    18    18    19   ar
    19    19    20   ar
    20     5     1    1
    21    20     6   ar
    22    19     8   ar
    23    18    10   ar
    24    16    11   ar
    25     1    21    1
    26     1    22    1
    27     2    23    1
    28     3    24    1
    29     4    25    1
    30     7    26    1
    31    12    27    1
    32    13    28    1
    33    14    29    1
    34    15    30    1
    35    17    31    1
