@<TRIPOS>MOLECULE
*****
 41 42 0 0 0
SMALL
GASTEIGER

@<TRIPOS>ATOM
      1 C          -5.0209   -1.9543    3.3426 C.3     1  UNL1       -0.0305
      2 C          -3.5197   -2.1573    3.4280 C.3     1  UNL1        0.0931
      3 O          -3.0043   -2.5847    2.1609 O.3     1  UNL1       -0.4338
      4 C          -2.6817   -1.5902    1.2904 C.2     1  UNL1        0.5156
      5 O          -2.8114   -0.3930    1.5037 O.2     1  UNL1       -0.2025
      6 O          -2.1959   -2.1818    0.1365 O.3     1  UNL1       -0.3949
      7 C          -1.8158   -1.2510   -0.8344 C.ar    1  UNL1        0.1359
      8 C          -2.7582   -0.8308   -1.7728 C.ar    1  UNL1       -0.0156
      9 C          -2.3936    0.0710   -2.7749 C.ar    1  UNL1       -0.0153
     10 C          -1.0643    0.4953   -2.7839 C.ar    1  UNL1        0.1362
     11 O          -0.5344    1.3703   -3.6767 O.2     1  UNL1       -0.4591
     12 C           0.7788    1.5282   -3.3568 C.ar    1  UNL1        0.1172
     13 C           1.5448    2.4581   -4.2163 C.3     1  UNL1       -0.0055
     14 C           1.1152    0.7492   -2.2588 C.ar    1  UNL1        0.1073
     15 C           2.4416    0.6882   -1.6710 C.2     1  UNL1        0.3432
     16 O           3.3730    1.4014   -2.0281 O.2     1  UNL1       -0.2448
     17 O           2.5404   -0.2480   -0.6865 O.3     1  UNL1       -0.4588
     18 C           3.8192   -0.3379   -0.0318 C.3     1  UNL1        0.1160
     19 C           3.9786    0.7617    1.0171 C.3     1  UNL1        0.0815
     20 O           3.0427    0.5322    2.0757 O.3     1  UNL1       -0.3796
     21 C           3.1007    1.5582    3.0578 C.3     1  UNL1        0.0366
     22 C          -0.0939    0.0777   -1.8781 C.ar    1  UNL1        0.0379
     23 C          -0.4791   -0.8309   -0.8711 C.ar    1  UNL1       -0.0076
     24 H          -5.2709   -1.1632    2.6286 H       1  UNL1        0.0262
     25 H          -5.4320   -1.6853    4.3197 H       1  UNL1        0.0262
     26 H          -5.5129   -2.8673    2.9915 H       1  UNL1        0.0262
     27 H          -3.2974   -2.9517    4.1481 H       1  UNL1        0.0696
     28 H          -3.0119   -1.2528    3.7823 H       1  UNL1        0.0696
     29 H          -3.7802   -1.1968   -1.7244 H       1  UNL1        0.0655
     30 H          -3.1018    0.4287   -3.5124 H       1  UNL1        0.0656
     31 H           1.9222    3.2999   -3.6278 H       1  UNL1        0.0308
     32 H           2.3949    1.9441   -4.6752 H       1  UNL1        0.0308
     33 H           0.9213    2.8614   -5.0206 H       1  UNL1        0.0308
     34 H           4.6283   -0.3051   -0.7704 H       1  UNL1        0.0721
     35 H           3.8495   -1.3211    0.4495 H       1  UNL1        0.0721
     36 H           4.9937    0.7327    1.4277 H       1  UNL1        0.0593
     37 H           3.7904    1.7486    0.5818 H       1  UNL1        0.0593
     38 H           2.3768    1.3245    3.8430 H       1  UNL1        0.0524
     39 H           2.8384    2.5249    2.6174 H       1  UNL1        0.0524
     40 H           4.0986    1.6051    3.5043 H       1  UNL1        0.0524
     41 H           0.2308   -1.1935   -0.1344 H       1  UNL1        0.0662
@<TRIPOS>BOND
     1     1     2    1
     2     2     3    1
     3     3     4    1
     4     4     5    2
     5     4     6    1
     6     6     7    1
     7     7     8   ar
     8     8     9   ar
     9     9    10   ar
    10    10    11   ar
    11    11    12   ar
    12    12    13    1
    13    12    14   ar
    14    14    15    1
    15    15    16    2
    16    15    17    1
    17    17    18    1
    18    18    19    1
    19    19    20    1
    20    20    21    1
    21    14    22   ar
    22    22    23   ar
    23    23     7   ar
    24    22    10   ar
    25     1    24    1
    26     1    25    1
    27     1    26    1
    28     2    27    1
    29     2    28    1
    30     8    29    1
    31     9    30    1
    32    13    31    1
    33    13    32    1
    34    13    33    1
    35    18    34    1
    36    18    35    1
    37    19    36    1
    38    19    37    1
    39    21    38    1
    40    21    39    1
    41    21    40    1
    42    23    41    1
