@<TRIPOS>MOLECULE
*****
 31 32 0 0 0
SMALL
GASTEIGER

@<TRIPOS>ATOM
      1 C           5.3096    1.2019   -0.4272 C.3     1  UNL1       -0.0307
      2 C           3.8056    0.9956   -0.4073 C.3     1  UNL1        0.0871
      3 O           3.5266   -0.2574   -1.0384 O.3     1  UNL1       -0.4857
      4 C           2.3804   -0.8899   -0.5629 C.ar    1  UNL1        0.2066
      5 C           2.4324   -2.1746   -0.2102 C.ar    1  UNL1        0.1077
      6 CL          3.8505   -3.1392   -0.2502 Cl      1  UNL1       -0.0779
      7 C           1.2051   -2.7979    0.2717 C.ar    1  UNL1        0.0705
      8 N           0.0611   -2.2161    0.3872 N.ar    1  UNL1       -0.1700
      9 N          -0.0352   -0.8872    0.0089 N.ar    1  UNL1       -0.1937
     10 C          -1.3655   -0.3454    0.1793 C.ar    1  UNL1        0.0693
     11 C          -1.6977    0.9882   -0.0964 C.ar    1  UNL1       -0.0359
     12 C          -3.0019    1.4749    0.0846 C.ar    1  UNL1       -0.0568
     13 C          -4.0212    0.6387    0.5405 C.ar    1  UNL1       -0.0503
     14 C          -5.4048    1.1699    0.7637 C.3     1  UNL1       -0.0397
     15 C          -3.7098   -0.6865    0.8387 C.ar    1  UNL1       -0.0568
     16 C          -2.4063   -1.1675    0.6562 C.ar    1  UNL1       -0.0359
     17 C           1.0573   -0.1644   -0.5086 C.ar    1  UNL1        0.3152
     18 O           1.0263    0.9961   -0.9181 O.2     1  UNL1       -0.2618
     19 H           5.8159    0.3940    0.1113 H       1  UNL1        0.0262
     20 H           5.5784    2.1565    0.0337 H       1  UNL1        0.0262
     21 H           5.6878    1.1863   -1.4547 H       1  UNL1        0.0262
     22 H           3.3269    1.8032   -0.9698 H       1  UNL1        0.0694
     23 H           3.4545    1.0099    0.6318 H       1  UNL1        0.0694
     24 H           1.2806   -3.8579    0.5662 H       1  UNL1        0.0864
     25 H          -0.9675    1.7054   -0.4536 H       1  UNL1        0.0639
     26 H          -3.2077    2.5200   -0.1381 H       1  UNL1        0.0621
     27 H          -5.6341    1.9726    0.0549 H       1  UNL1        0.0278
     28 H          -5.4963    1.5602    1.7820 H       1  UNL1        0.0278
     29 H          -6.1534    0.3842    0.6172 H       1  UNL1        0.0278
     30 H          -4.4749   -1.3620    1.2143 H       1  UNL1        0.0621
     31 H          -2.2228   -2.2117    0.8981 H       1  UNL1        0.0639
@<TRIPOS>BOND
     1     1     2    1
     2     2     3    1
     3     3     4    1
     4     4     5   ar
     5     5     6    1
     6     5     7   ar
     7     7     8   ar
     8     8     9   ar
     9     9    10    1
    10    10    11   ar
    11    11    12   ar
    12    12    13   ar
    13    13    14    1
    14    13    15   ar
    15    15    16   ar
    16     9    17   ar
    17    17    18    2
    18    17     4   ar
    19    16    10   ar
    20     1    19    1
    21     1    20    1
    22     1    21    1
    23     2    22    1
    24     2    23    1
    25     7    24    1
    26    11    25    1
    27    12    26    1
    28    14    27    1
    29    14    28    1
    30    14    29    1
    31    15    30    1
    32    16    31    1
