@<TRIPOS>MOLECULE
*****
 40 41 0 0 0
SMALL
GASTEIGER

@<TRIPOS>ATOM
      1 C          -3.1788   -1.9590   -3.7225 C.3     1  UNL1       -0.0307
      2 C          -2.0491   -1.4471   -2.8465 C.3     1  UNL1        0.0870
      3 O          -2.6327   -0.7844   -1.7265 O.3     1  UNL1       -0.4885
      4 C          -1.7918   -0.2645   -0.7781 C.ar    1  UNL1        0.1637
      5 C          -0.3966   -0.2938   -0.8511 C.ar    1  UNL1       -0.0041
      6 C           0.3832    0.2347    0.1899 C.ar    1  UNL1        0.0418
      7 C           1.8664    0.1770    0.0564 C.2     1  UNL1        0.2485
      8 O           2.3478    0.2682   -1.0664 O.2     1  UNL1       -0.2698
      9 N           2.5550   -0.0133    1.2370 N.am    1  UNL1       -0.2792
     10 C           3.9557   -0.0745    1.4138 C.ar    1  UNL1        0.0692
     11 C           4.8911    0.1300    0.3997 C.ar    1  UNL1       -0.0377
     12 C           6.2614    0.0540    0.6798 C.ar    1  UNL1       -0.0598
     13 C           6.7071   -0.2250    1.9727 C.ar    1  UNL1       -0.0589
     14 C           5.7822   -0.4277    2.9929 C.ar    1  UNL1       -0.0246
     15 C           4.4226   -0.3506    2.7061 C.ar    1  UNL1        0.1445
     16 F           3.5380   -0.5448    3.6983 F       1  UNL1       -0.2035
     17 C          -0.2310    0.8184    1.3029 C.ar    1  UNL1       -0.0319
     18 C          -1.6237    0.8530    1.3800 C.ar    1  UNL1        0.0638
     19 BR         -2.4132    1.6334    2.9201 Br      1  UNL1       -0.0464
     20 C          -2.4037    0.3307    0.3398 C.ar    1  UNL1        0.1758
     21 O          -3.7736    0.3377    0.4595 O.3     1  UNL1       -0.4875
     22 C          -4.3481    1.3874   -0.3278 C.3     1  UNL1        0.0870
     23 C          -5.8223    1.4785    0.0225 C.3     1  UNL1       -0.0307
     24 H          -3.8240   -2.6419   -3.1592 H       1  UNL1        0.0262
     25 H          -2.7871   -2.4849   -4.5984 H       1  UNL1        0.0262
     26 H          -3.8104   -1.1303   -4.0596 H       1  UNL1        0.0262
     27 H          -1.4360   -0.7468   -3.4256 H       1  UNL1        0.0694
     28 H          -1.4412   -2.2961   -2.5131 H       1  UNL1        0.0694
     29 H           0.1172   -0.7294   -1.7037 H       1  UNL1        0.0663
     30 H           2.0235   -0.1999    2.0813 H       1  UNL1        0.1552
     31 H           4.5895    0.3537   -0.6190 H       1  UNL1        0.0637
     32 H           6.9816    0.2147   -0.1198 H       1  UNL1        0.0618
     33 H           7.7726   -0.2826    2.1807 H       1  UNL1        0.0618
     34 H           6.1087   -0.6453    4.0047 H       1  UNL1        0.0647
     35 H           0.3620    1.2661    2.0956 H       1  UNL1        0.0637
     36 H          -4.2441    1.1712   -1.3967 H       1  UNL1        0.0694
     37 H          -3.8662    2.3483   -0.1067 H       1  UNL1        0.0694
     38 H          -6.3265    0.5263   -0.1734 H       1  UNL1        0.0262
     39 H          -6.3132    2.2638   -0.5590 H       1  UNL1        0.0262
     40 H          -5.9523    1.6948    1.0884 H       1  UNL1        0.0262
@<TRIPOS>BOND
     1     1     2    1
     2     2     3    1
     3     3     4    1
     4     4     5   ar
     5     5     6   ar
     6     6     7    1
     7     7     8    2
     8     7     9   am
     9     9    10    1
    10    10    11   ar
    11    11    12   ar
    12    12    13   ar
    13    13    14   ar
    14    14    15   ar
    15    15    16    1
    16     6    17   ar
    17    17    18   ar
    18    18    19    1
    19    18    20   ar
    20    20    21    1
    21    21    22    1
    22    22    23    1
    23    20     4   ar
    24    15    10   ar
    25     1    24    1
    26     1    25    1
    27     1    26    1
    28     2    27    1
    29     2    28    1
    30     5    29    1
    31     9    30    1
    32    11    31    1
    33    12    32    1
    34    13    33    1
    35    14    34    1
    36    17    35    1
    37    22    36    1
    38    22    37    1
    39    23    38    1
    40    23    39    1
    41    23    40    1
