@<TRIPOS>MOLECULE
*****
 46 47 0 0 0
SMALL
GASTEIGER

@<TRIPOS>ATOM
      1 C          -4.1149   -3.6368    0.6731 C.3     1  UNL1       -0.0307
      2 C          -4.5038   -2.2668    0.1471 C.3     1  UNL1        0.0870
      3 O          -3.3133   -1.4987    0.0002 O.3     1  UNL1       -0.4886
      4 C          -3.4250   -0.2069   -0.4528 C.ar    1  UNL1        0.1625
      5 C          -4.6337    0.4036   -0.8060 C.ar    1  UNL1       -0.0061
      6 C          -4.6366    1.7270   -1.2552 C.ar    1  UNL1        0.0179
      7 C          -5.9172    2.3635   -1.6243 C.2     1  UNL1        0.1503
      8 O          -5.9798    3.5219   -2.0164 O.2     1  UNL1       -0.2957
      9 C          -3.4459    2.4464   -1.3529 C.ar    1  UNL1       -0.0479
     10 C          -2.2375    1.8410   -1.0024 C.ar    1  UNL1       -0.0156
     11 C          -2.2149    0.5148   -0.5582 C.ar    1  UNL1        0.1619
     12 O          -1.0831   -0.1618   -0.1809 O.3     1  UNL1       -0.4883
     13 C           0.1992    0.4012   -0.4573 C.3     1  UNL1        0.0912
     14 C           0.6888    1.2035    0.7469 C.3     1  UNL1       -0.0023
     15 C           2.0291    1.8931    0.5013 C.3     1  UNL1        0.0270
     16 N           3.1264    0.9607    0.3465 N.am    1  UNL1       -0.2242
     17 C           3.6041    0.5187   -0.8492 C.2     1  UNL1        0.3093
     18 O           3.2034    0.8176   -1.9613 O.2     1  UNL1       -0.2522
     19 N           4.6319   -0.3625   -0.6122 N.am    1  UNL1       -0.2854
     20 C           4.8559   -0.5835    0.7978 C.3     1  UNL1        0.1070
     21 C           6.2544   -0.1493    1.2120 C.3     1  UNL1       -0.0353
     22 C           4.5501   -2.0240    1.1859 C.3     1  UNL1       -0.0353
     23 C           3.7956    0.3651    1.3818 C.2     1  UNL1        0.2460
     24 O           3.5881    0.5427    2.5747 O.2     1  UNL1       -0.2728
     25 H          -4.9974   -4.2693    0.8040 H       1  UNL1        0.0262
     26 H          -3.4234   -4.1325   -0.0164 H       1  UNL1        0.0262
     27 H          -3.5975   -3.5481    1.6342 H       1  UNL1        0.0262
     28 H          -5.1804   -1.7877    0.8640 H       1  UNL1        0.0694
     29 H          -5.0021   -2.3845   -0.8219 H       1  UNL1        0.0694
     30 H          -5.5741   -0.1313   -0.7381 H       1  UNL1        0.0662
     31 H          -6.8232    1.7419   -1.5288 H       1  UNL1        0.1081
     32 H          -3.4538    3.4785   -1.6985 H       1  UNL1        0.0626
     33 H          -1.3355    2.4381   -1.0795 H       1  UNL1        0.0655
     34 H           0.8697   -0.4504   -0.6183 H       1  UNL1        0.0697
     35 H           0.2142    0.9748   -1.3907 H       1  UNL1        0.0697
     36 H          -0.0558    1.9642    1.0091 H       1  UNL1        0.0313
     37 H           0.7514    0.5401    1.6187 H       1  UNL1        0.0313
     38 H           2.2562    2.5366    1.3590 H       1  UNL1        0.0471
     39 H           1.9683    2.5280   -0.3897 H       1  UNL1        0.0471
     40 H           5.1032   -0.8321   -1.3747 H       1  UNL1        0.1513
     41 H           6.4007   -0.2624    2.2919 H       1  UNL1        0.0255
     42 H           6.4346    0.9040    0.9668 H       1  UNL1        0.0255
     43 H           7.0193   -0.7424    0.6987 H       1  UNL1        0.0255
     44 H           3.5221   -2.2995    0.9223 H       1  UNL1        0.0255
     45 H           5.2203   -2.7212    0.6710 H       1  UNL1        0.0255
     46 H           4.6619   -2.1754    2.2652 H       1  UNL1        0.0255
@<TRIPOS>BOND
     1     1     2    1
     2     2     3    1
     3     3     4    1
     4     4     5   ar
     5     5     6   ar
     6     6     7    1
     7     7     8    2
     8     6     9   ar
     9     9    10   ar
    10    10    11   ar
    11    11    12    1
    12    12    13    1
    13    13    14    1
    14    14    15    1
    15    15    16    1
    16    16    17   am
    17    17    18    2
    18    17    19   am
    19    19    20    1
    20    20    21    1
    21    20    22    1
    22    20    23    1
    23    23    24    2
    24    11     4   ar
    25    23    16   am
    26     1    25    1
    27     1    26    1
    28     1    27    1
    29     2    28    1
    30     2    29    1
    31     5    30    1
    32     7    31    1
    33     9    32    1
    34    10    33    1
    35    13    34    1
    36    13    35    1
    37    14    36    1
    38    14    37    1
    39    15    38    1
    40    15    39    1
    41    19    40    1
    42    21    41    1
    43    21    42    1
    44    21    43    1
    45    22    44    1
    46    22    45    1
    47    22    46    1
