@<TRIPOS>MOLECULE
*****
 37 38 0 0 0
SMALL
GASTEIGER

@<TRIPOS>ATOM
      1 C          -2.3653    0.4529   -4.2041 C.3     1  UNL1       -0.0307
      2 C          -1.8734    1.5742   -3.3055 C.3     1  UNL1        0.0868
      3 O          -2.7722    1.7796   -2.2169 O.3     1  UNL1       -0.4907
      4 C          -2.5675    1.1190   -1.0351 C.ar    1  UNL1        0.1406
      5 C          -1.6591    0.0726   -0.8555 C.ar    1  UNL1        0.0079
      6 C          -1.5350   -0.5393    0.4001 C.ar    1  UNL1        0.1088
      7 S          -0.3781   -1.8720    0.5943 S.O2    1  UNL1        0.0588
      8 O          -0.4438   -2.6788   -0.6036 O.2     1  UNL1       -0.1530
      9 O          -0.5376   -2.4410    1.9132 O.2     1  UNL1       -0.1530
     10 N           1.0863   -1.0618    0.5385 N.3     1  UNL1       -0.1869
     11 C           1.5928   -0.3797    1.7347 C.3     1  UNL1        0.0288
     12 C           2.5250   -1.2901    2.5249 C.3     1  UNL1       -0.0359
     13 C           3.8404   -1.2297    1.7597 C.3     1  UNL1       -0.0515
     14 C           3.9110    0.1874    1.1977 C.3     1  UNL1       -0.0515
     15 C           2.5012    0.7734    1.3115 C.3     1  UNL1       -0.0359
     16 C          -2.3212   -0.1369    1.4807 C.ar    1  UNL1       -0.0337
     17 C          -3.2329    0.9024    1.3061 C.ar    1  UNL1       -0.0380
     18 C          -3.3553    1.5253    0.0583 C.ar    1  UNL1        0.0826
     19 CL         -4.5040    2.8114   -0.0879 Cl      1  UNL1       -0.0798
     20 H          -1.7089    0.3360   -5.0710 H       1  UNL1        0.0262
     21 H          -2.4093   -0.4993   -3.6686 H       1  UNL1        0.0262
     22 H          -3.3811    0.6632   -4.5572 H       1  UNL1        0.0262
     23 H          -0.8391    1.4260   -2.9758 H       1  UNL1        0.0694
     24 H          -1.8718    2.5048   -3.8849 H       1  UNL1        0.0694
     25 H          -1.0442   -0.2971   -1.6707 H       1  UNL1        0.0674
     26 H           1.7430   -1.4430   -0.1410 H       1  UNL1        0.1483
     27 H           0.7619   -0.0094    2.3439 H       1  UNL1        0.0477
     28 H           2.6719   -0.8843    3.5333 H       1  UNL1        0.0281
     29 H           2.1598   -2.3163    2.6229 H       1  UNL1        0.0281
     30 H           3.8330   -1.9553    0.9384 H       1  UNL1        0.0266
     31 H           4.6990   -1.4650    2.3973 H       1  UNL1        0.0266
     32 H           4.6203    0.7984    1.7693 H       1  UNL1        0.0266
     33 H           4.2559    0.1748    0.1573 H       1  UNL1        0.0266
     34 H           2.1851    1.2507    0.3771 H       1  UNL1        0.0281
     35 H           2.4994    1.5475    2.0897 H       1  UNL1        0.0281
     36 H          -2.2350   -0.6236    2.4500 H       1  UNL1        0.0637
     37 H          -3.8511    1.2229    2.1419 H       1  UNL1        0.0634
@<TRIPOS>BOND
     1     1     2    1
     2     2     3    1
     3     3     4    1
     4     4     5   ar
     5     5     6   ar
     6     6     7    1
     7     7     8    2
     8     7     9    2
     9     7    10    1
    10    10    11    1
    11    11    12    1
    12    12    13    1
    13    13    14    1
    14    14    15    1
    15     6    16   ar
    16    16    17   ar
    17    17    18   ar
    18    18    19    1
    19    18     4   ar
    20    15    11    1
    21     1    20    1
    22     1    21    1
    23     1    22    1
    24     2    23    1
    25     2    24    1
    26     5    25    1
    27    10    26    1
    28    11    27    1
    29    12    28    1
    30    12    29    1
    31    13    30    1
    32    13    31    1
    33    14    32    1
    34    14    33    1
    35    15    34    1
    36    15    35    1
    37    16    36    1
    38    17    37    1
