@<TRIPOS>MOLECULE
*****
 44 45 0 0 0
SMALL
GASTEIGER

@<TRIPOS>ATOM
      1 C          -5.4193   -1.7825    0.7722 C.3     1  UNL1       -0.0307
      2 C          -5.6110   -0.4820    1.5338 C.3     1  UNL1        0.0868
      3 O          -4.3701    0.0048    2.0410 O.3     1  UNL1       -0.4922
      4 C          -3.5465    0.7157    1.2147 C.ar    1  UNL1        0.1205
      5 C          -2.3052    1.0338    1.7762 C.ar    1  UNL1       -0.0193
      6 C          -1.3531    1.7464    1.0459 C.ar    1  UNL1       -0.0496
      7 C          -1.6425    2.1374   -0.2587 C.ar    1  UNL1       -0.0052
      8 C          -0.6696    2.9181   -1.0415 C.2     1  UNL1        0.0528
      9 N           0.5864    2.6611   -1.2695 N.2     1  UNL1       -0.1885
     10 N           1.0891    1.4359   -0.8882 N.am    1  UNL1       -0.2182
     11 C           0.9592    0.3289   -1.7141 C.2     1  UNL1        0.1542
     12 S          -0.1426    0.1297   -2.9677 S.2     1  UNL1       -0.0169
     13 N           1.8583   -0.6967   -1.5365 N.am    1  UNL1       -0.2952
     14 C           2.9424   -0.8058   -0.6395 C.ar    1  UNL1        0.0385
     15 C           4.2057   -1.1442   -1.1778 C.ar    1  UNL1       -0.0290
     16 C           4.4123   -1.3728   -2.6526 C.3     1  UNL1       -0.0379
     17 C           5.3180   -1.2378   -0.3269 C.ar    1  UNL1       -0.0571
     18 C           5.1856   -1.0167    1.0390 C.ar    1  UNL1       -0.0611
     19 C           3.9340   -0.7346    1.5748 C.ar    1  UNL1       -0.0571
     20 C           2.7945   -0.6581    0.7540 C.ar    1  UNL1       -0.0290
     21 C           1.4719   -0.4925    1.4490 C.3     1  UNL1       -0.0379
     22 C          -2.8900    1.8603   -0.8180 C.ar    1  UNL1       -0.0496
     23 C          -3.8373    1.1383   -0.0838 C.ar    1  UNL1       -0.0193
     24 H          -4.8833   -2.5115    1.3890 H       1  UNL1        0.0262
     25 H          -6.3829   -2.2101    0.4844 H       1  UNL1        0.0262
     26 H          -4.8221   -1.6328   -0.1329 H       1  UNL1        0.0262
     27 H          -6.2396   -0.6875    2.4080 H       1  UNL1        0.0694
     28 H          -6.1497    0.2713    0.9497 H       1  UNL1        0.0694
     29 H          -2.0795    0.7220    2.7931 H       1  UNL1        0.0654
     30 H          -0.4016    2.0051    1.4989 H       1  UNL1        0.0625
     31 H          -1.0690    3.8496   -1.4801 H       1  UNL1        0.0851
     32 H           2.0481    1.5293   -0.5634 H       1  UNL1        0.1762
     33 H           1.9033   -1.2745   -2.3680 H       1  UNL1        0.1539
     34 H           3.8450   -2.2489   -2.9834 H       1  UNL1        0.0278
     35 H           4.0982   -0.4932   -3.2238 H       1  UNL1        0.0278
     36 H           5.4660   -1.5552   -2.8894 H       1  UNL1        0.0278
     37 H           6.3005   -1.4771   -0.7285 H       1  UNL1        0.0621
     38 H           6.0540   -1.0855    1.6888 H       1  UNL1        0.0618
     39 H           3.8396   -0.6061    2.6515 H       1  UNL1        0.0621
     40 H           1.4204   -1.1529    2.3215 H       1  UNL1        0.0278
     41 H           0.6243   -0.7615    0.8144 H       1  UNL1        0.0278
     42 H           1.3657    0.5387    1.7961 H       1  UNL1        0.0278
     43 H          -3.1218    2.1748   -1.8325 H       1  UNL1        0.0625
     44 H          -4.7859    0.9197   -0.5616 H       1  UNL1        0.0654
@<TRIPOS>BOND
     1     1     2    1
     2     2     3    1
     3     3     4    1
     4     4     5   ar
     5     5     6   ar
     6     6     7   ar
     7     7     8    1
     8     8     9    2
     9     9    10    1
    10    10    11    1
    11    11    12    2
    12    11    13    1
    13    13    14    1
    14    14    15   ar
    15    15    16    1
    16    15    17   ar
    17    17    18   ar
    18    18    19   ar
    19    19    20   ar
    20    20    21    1
    21     7    22   ar
    22    22    23   ar
    23    23     4   ar
    24    20    14   ar
    25     1    24    1
    26     1    25    1
    27     1    26    1
    28     2    27    1
    29     2    28    1
    30     5    29    1
    31     6    30    1
    32     8    31    1
    33    10    32    1
    34    13    33    1
    35    16    34    1
    36    16    35    1
    37    16    36    1
    38    17    37    1
    39    18    38    1
    40    19    39    1
    41    21    40    1
    42    21    41    1
    43    21    42    1
    44    22    43    1
    45    23    44    1
