@<TRIPOS>MOLECULE
*****
 33 35 0 0 0
SMALL
GASTEIGER

@<TRIPOS>ATOM
      1 C           6.5193   -0.3205   -0.3320 C.3     1  UNL1       -0.0307
      2 C           5.0619   -0.7426   -0.2815 C.3     1  UNL1        0.0868
      3 O           4.2598    0.4327   -0.3832 O.3     1  UNL1       -0.4922
      4 C           2.9050    0.2644   -0.3569 C.ar    1  UNL1        0.1206
      5 C           2.1640    1.4372   -0.4588 C.ar    1  UNL1       -0.0182
      6 C           0.7617    1.4082   -0.4450 C.ar    1  UNL1       -0.0364
      7 C           0.0526    0.2034   -0.3286 C.ar    1  UNL1        0.0447
      8 N          -1.3787    0.1694   -0.3141 N.am    1  UNL1       -0.2024
      9 C          -2.1452   -0.9762   -0.2027 C.2     1  UNL1        0.2582
     10 O          -1.8499   -2.1536   -0.0968 O.2     1  UNL1       -0.2692
     11 C          -3.5449   -0.5666   -0.2292 C.ar    1  UNL1        0.0498
     12 C          -4.7004   -1.3223   -0.1505 C.ar    1  UNL1       -0.0489
     13 C          -5.9195   -0.6396   -0.2036 C.ar    1  UNL1       -0.0610
     14 C          -5.9539    0.7632   -0.3323 C.ar    1  UNL1       -0.0610
     15 C          -4.7697    1.5026   -0.4097 C.ar    1  UNL1       -0.0489
     16 C          -3.5785    0.8023   -0.3548 C.ar    1  UNL1        0.0498
     17 C          -2.2005    1.2776   -0.4094 C.2     1  UNL1        0.2582
     18 O          -1.9641    2.4676   -0.5207 O.2     1  UNL1       -0.2692
     19 C           0.8209   -0.9681   -0.2270 C.ar    1  UNL1       -0.0364
     20 C           2.2260   -0.9417   -0.2406 C.ar    1  UNL1       -0.0182
     21 H           7.1796   -1.1891   -0.2574 H       1  UNL1        0.0262
     22 H           6.7353    0.2088   -1.2660 H       1  UNL1        0.0262
     23 H           6.7493    0.3700    0.4862 H       1  UNL1        0.0262
     24 H           4.8557   -1.4176   -1.1202 H       1  UNL1        0.0694
     25 H           4.8701   -1.2531    0.6693 H       1  UNL1        0.0694
     26 H           2.6768    2.3922   -0.5507 H       1  UNL1        0.0655
     27 H           0.2612    2.3678   -0.5292 H       1  UNL1        0.0637
     28 H          -4.6585   -2.4025   -0.0516 H       1  UNL1        0.0625
     29 H          -6.8533   -1.1963   -0.1450 H       1  UNL1        0.0618
     30 H          -6.9138    1.2754   -0.3717 H       1  UNL1        0.0618
     31 H          -4.7806    2.5836   -0.5089 H       1  UNL1        0.0625
     32 H           0.3625   -1.9479   -0.1333 H       1  UNL1        0.0637
     33 H           2.7494   -1.8887   -0.1577 H       1  UNL1        0.0655
@<TRIPOS>BOND
     1     1     2    1
     2     2     3    1
     3     3     4    1
     4     4     5   ar
     5     5     6   ar
     6     6     7   ar
     7     7     8    1
     8     8     9   am
     9     9    10    2
    10     9    11    1
    11    11    12   ar
    12    12    13   ar
    13    13    14   ar
    14    14    15   ar
    15    15    16   ar
    16    16    17    1
    17    17    18    2
    18     7    19   ar
    19    19    20   ar
    20    20     4   ar
    21    17     8   am
    22    16    11   ar
    23     1    21    1
    24     1    22    1
    25     1    23    1
    26     2    24    1
    27     2    25    1
    28     5    26    1
    29     6    27    1
    30    12    28    1
    31    13    29    1
    32    14    30    1
    33    15    31    1
    34    19    32    1
    35    20    33    1
