@<TRIPOS>MOLECULE
*****
 33 35 0 0 0
SMALL
GASTEIGER

@<TRIPOS>ATOM
      1 C           5.6452    0.7573   -0.0329 C.3     1  UNL1       -0.0307
      2 C           5.1010   -0.3123   -0.9638 C.3     1  UNL1        0.0868
      3 O           4.1737   -1.1539   -0.2811 O.3     1  UNL1       -0.4922
      4 C           2.8523   -0.8129   -0.2738 C.ar    1  UNL1        0.1206
      5 C           2.2956    0.3650   -0.7588 C.ar    1  UNL1       -0.0182
      6 C           0.9106    0.5811   -0.6776 C.ar    1  UNL1       -0.0368
      7 C           0.0507   -0.3714   -0.1087 C.ar    1  UNL1        0.0372
      8 N          -1.3479   -0.1343   -0.0366 N.am    1  UNL1       -0.2616
      9 C          -1.9579    1.0916   -0.5412 C.3     1  UNL1        0.0630
     10 C          -3.4174    0.8972   -0.2555 C.ar    1  UNL1        0.0710
     11 N          -4.4022    1.7708   -0.5423 N.ar    1  UNL1       -0.2575
     12 C          -5.6457    1.3621   -0.1828 C.ar    1  UNL1        0.0280
     13 C          -5.9281    0.1406    0.4376 C.ar    1  UNL1       -0.0429
     14 C          -4.8791   -0.7346    0.7166 C.ar    1  UNL1       -0.0464
     15 C          -3.6131   -0.3251    0.3538 C.ar    1  UNL1        0.0600
     16 C          -2.3176   -0.9899    0.4996 C.2     1  UNL1        0.2530
     17 O          -2.2232   -2.0902    1.0117 O.2     1  UNL1       -0.2696
     18 C           0.6268   -1.5477    0.3790 C.ar    1  UNL1       -0.0368
     19 C           2.0090   -1.7631    0.2985 C.ar    1  UNL1       -0.0182
     20 H           6.4089    1.3562   -0.5371 H       1  UNL1        0.0262
     21 H           4.8527    1.4259    0.3159 H       1  UNL1        0.0262
     22 H           6.0884    0.2999    0.8580 H       1  UNL1        0.0262
     23 H           5.9326   -0.9558   -1.2731 H       1  UNL1        0.0694
     24 H           4.6879    0.1074   -1.8876 H       1  UNL1        0.0694
     25 H           2.9038    1.1468   -1.2003 H       1  UNL1        0.0655
     26 H           0.5351    1.5203   -1.0728 H       1  UNL1        0.0637
     27 H          -1.5726    1.9566    0.0073 H       1  UNL1        0.0534
     28 H          -1.7875    1.1804   -1.6185 H       1  UNL1        0.0534
     29 H          -6.4447    2.0634   -0.4118 H       1  UNL1        0.0829
     30 H          -6.9500   -0.1180    0.6962 H       1  UNL1        0.0633
     31 H          -5.0430   -1.6935    1.1959 H       1  UNL1        0.0626
     32 H           0.0296   -2.3311    0.8353 H       1  UNL1        0.0637
     33 H           2.4261   -2.6888    0.6887 H       1  UNL1        0.0655
@<TRIPOS>BOND
     1     1     2    1
     2     2     3    1
     3     3     4    1
     4     4     5   ar
     5     5     6   ar
     6     6     7   ar
     7     7     8    1
     8     8     9    1
     9     9    10    1
    10    10    11   ar
    11    11    12   ar
    12    12    13   ar
    13    13    14   ar
    14    14    15   ar
    15    15    16    1
    16    16    17    2
    17     7    18   ar
    18    18    19   ar
    19    19     4   ar
    20    16     8   am
    21    15    10   ar
    22     1    20    1
    23     1    21    1
    24     1    22    1
    25     2    23    1
    26     2    24    1
    27     5    25    1
    28     6    26    1
    29     9    27    1
    30     9    28    1
    31    12    29    1
    32    13    30    1
    33    14    31    1
    34    18    32    1
    35    19    33    1
