@<TRIPOS>MOLECULE
*****
 35 36 0 0 0
SMALL
GASTEIGER

@<TRIPOS>ATOM
      1 C          -6.1786    1.4639    0.4363 C.3     1  UNL1       -0.0307
      2 C          -5.6933    0.3180    1.3070 C.3     1  UNL1        0.0868
      3 O          -4.9121   -0.6012    0.5463 O.3     1  UNL1       -0.4922
      4 C          -3.5651   -0.4013    0.4464 C.ar    1  UNL1        0.1206
      5 C          -2.8519    0.6974    0.9176 C.ar    1  UNL1       -0.0182
      6 C          -1.4636    0.7669    0.7364 C.ar    1  UNL1       -0.0370
      7 C          -0.7700   -0.2559    0.0782 C.ar    1  UNL1        0.0339
      8 N           0.6262   -0.1082   -0.0545 N.am    1  UNL1       -0.2815
      9 C           1.4975   -0.9440   -0.7295 C.2     1  UNL1        0.2483
     10 O           1.2085   -1.9306   -1.3951 O.2     1  UNL1       -0.2699
     11 C           2.9305   -0.5452   -0.6483 C.ar    1  UNL1        0.0371
     12 C           3.4841   -0.0191    0.5240 C.ar    1  UNL1       -0.0479
     13 C           4.8346    0.3450    0.5539 C.ar    1  UNL1       -0.0403
     14 C           5.6556    0.1446   -0.5598 C.ar    1  UNL1        0.0246
     15 N           6.9692    0.6249   -0.5606 N.pl3   1  UNL1       -0.3580
     16 C           5.0841   -0.3428   -1.7380 C.ar    1  UNL1       -0.0403
     17 C           3.7367   -0.7132   -1.7779 C.ar    1  UNL1       -0.0479
     18 C          -1.4878   -1.3527   -0.3933 C.ar    1  UNL1       -0.0370
     19 C          -2.8743   -1.4202   -0.2114 C.ar    1  UNL1       -0.0182
     20 H          -6.7280    1.0803   -0.4299 H       1  UNL1        0.0262
     21 H          -6.8368    2.1282    1.0036 H       1  UNL1        0.0262
     22 H          -5.3431    2.0523    0.0458 H       1  UNL1        0.0262
     23 H          -5.1754    0.6664    2.2074 H       1  UNL1        0.0694
     24 H          -6.5677   -0.2395    1.6619 H       1  UNL1        0.0694
     25 H          -3.3388    1.5240    1.4225 H       1  UNL1        0.0655
     26 H          -0.9377    1.6393    1.1154 H       1  UNL1        0.0637
     27 H           1.0152    0.7422    0.3305 H       1  UNL1        0.1551
     28 H           2.8884    0.0979    1.4248 H       1  UNL1        0.0626
     29 H           5.2458    0.7787    1.4621 H       1  UNL1        0.0636
     30 H           7.4010    0.6515    0.3579 H       1  UNL1        0.1423
     31 H           7.5679    0.1827   -1.2517 H       1  UNL1        0.1423
     32 H           5.6851   -0.4455   -2.6380 H       1  UNL1        0.0636
     33 H           3.3147   -1.1175   -2.6958 H       1  UNL1        0.0626
     34 H          -1.0030   -2.1776   -0.9056 H       1  UNL1        0.0637
     35 H          -3.4180   -2.2834   -0.5886 H       1  UNL1        0.0655
@<TRIPOS>BOND
     1     1     2    1
     2     2     3    1
     3     3     4    1
     4     4     5   ar
     5     5     6   ar
     6     6     7   ar
     7     7     8    1
     8     8     9   am
     9     9    10    2
    10     9    11    1
    11    11    12   ar
    12    12    13   ar
    13    13    14   ar
    14    14    15    1
    15    14    16   ar
    16    16    17   ar
    17     7    18   ar
    18    18    19   ar
    19    19     4   ar
    20    17    11   ar
    21     1    20    1
    22     1    21    1
    23     1    22    1
    24     2    23    1
    25     2    24    1
    26     5    25    1
    27     6    26    1
    28     8    27    1
    29    12    28    1
    30    13    29    1
    31    15    30    1
    32    15    31    1
    33    16    32    1
    34    17    33    1
    35    18    34    1
    36    19    35    1
