@<TRIPOS>MOLECULE
*****
 31 32 0 0 0
SMALL
GASTEIGER

@<TRIPOS>ATOM
      1 C           6.2765    0.3442   -0.0615 C.3     1  UNL1       -0.0307
      2 C           4.8542    0.0211    0.3598 C.3     1  UNL1        0.0868
      3 O           3.9715    0.5568   -0.6246 O.3     1  UNL1       -0.4922
      4 C           2.6324    0.3691   -0.4252 C.ar    1  UNL1        0.1206
      5 C           1.8123    0.9112   -1.4149 C.ar    1  UNL1       -0.0182
      6 C           0.4217    0.7905   -1.3336 C.ar    1  UNL1       -0.0370
      7 C          -0.1707    0.1235   -0.2573 C.ar    1  UNL1        0.0339
      8 N          -1.5735    0.0420   -0.2434 N.am    1  UNL1       -0.2802
      9 C          -2.3881   -0.5574    0.6988 C.2     1  UNL1        0.2681
     10 O          -2.0426   -1.1418    1.7181 O.2     1  UNL1       -0.2681
     11 C          -3.8385   -0.4394    0.3707 C.ar    1  UNL1        0.1436
     12 C          -4.7946   -0.9869    1.2128 C.ar    1  UNL1        0.0580
     13 N          -6.1241   -0.9002    0.9484 N.ar    1  UNL1       -0.2595
     14 C          -6.4477   -0.2443   -0.1902 C.ar    1  UNL1        0.0457
     15 C          -5.4913    0.3034   -1.0325 C.ar    1  UNL1        0.0465
     16 N          -4.1632    0.2239   -0.7804 N.ar    1  UNL1       -0.2473
     17 C           0.6505   -0.4181    0.7316 C.ar    1  UNL1       -0.0370
     18 C           2.0452   -0.2965    0.6490 C.ar    1  UNL1       -0.0182
     19 H           6.9962   -0.0466    0.6632 H       1  UNL1        0.0262
     20 H           6.4948   -0.0867   -1.0443 H       1  UNL1        0.0262
     21 H           6.4159    1.4267   -0.1500 H       1  UNL1        0.0262
     22 H           4.7386   -1.0671    0.4230 H       1  UNL1        0.0694
     23 H           4.6580    0.4787    1.3364 H       1  UNL1        0.0694
     24 H           2.2594    1.4326   -2.2577 H       1  UNL1        0.0655
     25 H          -0.1853    1.2254   -2.1230 H       1  UNL1        0.0637
     26 H          -2.0766    0.4727   -1.0166 H       1  UNL1        0.1552
     27 H          -4.5244   -1.5110    2.1236 H       1  UNL1        0.0853
     28 H          -7.5072   -0.1697   -0.4102 H       1  UNL1        0.0845
     29 H          -5.7746    0.8251   -1.9404 H       1  UNL1        0.0845
     30 H           0.2378   -0.9449    1.5864 H       1  UNL1        0.0637
     31 H           2.6372   -0.7359    1.4449 H       1  UNL1        0.0655
@<TRIPOS>BOND
     1     1     2    1
     2     2     3    1
     3     3     4    1
     4     4     5   ar
     5     5     6   ar
     6     6     7   ar
     7     7     8    1
     8     8     9   am
     9     9    10    2
    10     9    11    1
    11    11    12   ar
    12    12    13   ar
    13    13    14   ar
    14    14    15   ar
    15    15    16   ar
    16     7    17   ar
    17    17    18   ar
    18    18     4   ar
    19    16    11   ar
    20     1    19    1
    21     1    20    1
    22     1    21    1
    23     2    22    1
    24     2    23    1
    25     5    24    1
    26     6    25    1
    27     8    26    1
    28    12    27    1
    29    14    28    1
    30    15    29    1
    31    17    30    1
    32    18    31    1
