@<TRIPOS>MOLECULE
*****
 42 48 0 0 0
SMALL
GASTEIGER

@<TRIPOS>ATOM
      1 SI          2.9826    0.4279   -1.2155 Si      1  UNL1        0.0000
      2 C           4.0491   -0.0270    0.2574 C.2     1  UNL1        0.0000
      3 C           3.3008   -0.3687    1.3238 C.2     1  UNL1        0.0000
      4 C           1.8473   -0.3060    1.0856 C.ar    1  UNL1        0.0000
      5 C           0.9094   -0.6369    2.0410 C.ar    1  UNL1        0.0000
      6 C          -0.4535   -0.5417    1.7295 C.ar    1  UNL1        0.0000
      7 C          -0.9654   -0.1039    0.4832 C.ar    1  UNL1        0.0000
      8 C           0.0376    0.1736   -0.5246 C.ar    1  UNL1        0.0000
      9 C           1.4280    0.0923   -0.2037 C.ar    1  UNL1        0.0000
     10 C          -0.5834    0.4883   -1.7684 C.ar    1  UNL1        0.0000
     11 C           0.0117    0.7821   -2.9732 C.ar    1  UNL1        0.0000
     12 O          -0.9292    1.0056   -3.9342 O.2     1  UNL1        0.0000
     13 C          -2.1453    0.8514   -3.3471 C.ar    1  UNL1        0.0000
     14 C          -1.9899    0.5316   -2.0201 C.ar    1  UNL1        0.0000
     15 C          -3.0194    0.3073   -1.0910 C.ar    1  UNL1        0.0000
     16 C          -4.4326    0.3764   -1.4485 C.ar    1  UNL1        0.0000
     17 C          -5.4770    0.2009   -0.5340 C.ar    1  UNL1        0.0000
     18 C          -4.9628   -0.0001    0.7321 C.ar    1  UNL1        0.0000
     19 C          -5.7501   -0.1268    1.8473 C.ar    1  UNL1        0.0000
     20 N          -4.9002   -0.2377    2.9169 N.ar    1  UNL1        0.0000
     21 C          -3.5887   -0.1715    2.4888 C.ar    1  UNL1        0.0000
     22 C          -3.5759   -0.0787    1.1132 C.ar    1  UNL1        0.0000
     23 C          -2.4444    0.0228    0.2240 C.ar    1  UNL1        0.0000
     24 C           5.4676   -0.0081    0.2172 C.ar    1  UNL1        0.0000
     25 C           6.3480   -0.2929   -0.8208 C.ar    1  UNL1        0.0000
     26 N           7.6972   -0.1616   -0.5529 N.ar    1  UNL1        0.0000
     27 C           7.8499    0.2184    0.6934 C.ar    1  UNL1        0.0000
     28 S           6.4165    0.4392    1.5982 S.2     1  UNL1        0.0000
     29 H           3.1443   -0.5225   -2.3464 H       1  UNL1        0.0000
     30 H           3.1075    1.8560   -1.6035 H       1  UNL1        0.0000
     31 H           3.6846   -0.6796    2.2871 H       1  UNL1        0.0000
     32 H           1.2113   -0.9795    3.0269 H       1  UNL1        0.0000
     33 H          -1.1254   -0.8780    2.5078 H       1  UNL1        0.0000
     34 H           1.0220    0.8728   -3.3374 H       1  UNL1        0.0000
     35 H          -2.9903    1.0041   -4.0031 H       1  UNL1        0.0000
     36 H          -4.7110    0.5811   -2.4811 H       1  UNL1        0.0000
     37 H          -6.5229    0.2611   -0.7964 H       1  UNL1        0.0000
     38 H          -6.8227   -0.1239    1.9865 H       1  UNL1        0.0000
     39 H          -5.1891   -0.3141    3.8836 H       1  UNL1        0.0000
     40 H          -2.8188   -0.1710    3.2424 H       1  UNL1        0.0000
     41 H           6.0565   -0.6142   -1.8141 H       1  UNL1        0.0000
     42 H           8.8260    0.3847    1.1301 H       1  UNL1        0.0000
@<TRIPOS>BOND
     1     1     2    1
     2     2     3    2
     3     3     4    1
     4     4     5   ar
     5     5     6   ar
     6     6     7   ar
     7     7     8   ar
     8     8     9   ar
     9     8    10   ar
    10    10    11   ar
    11    11    12   ar
    12    12    13   ar
    13    13    14   ar
    14    14    15   ar
    15    15    16   ar
    16    16    17   ar
    17    17    18   ar
    18    18    19   ar
    19    19    20   ar
    20    20    21   ar
    21    21    22   ar
    22    22    23   ar
    23     2    24    1
    24    24    25   ar
    25    25    26   ar
    26    26    27   ar
    27    27    28   ar
    28     9     1    1
    29    14    10   ar
    30    23    15   ar
    31    28    24   ar
    32     9     4   ar
    33    22    18   ar
    34    23     7   ar
    35     1    29    1
    36     1    30    1
    37     3    31    1
    38     5    32    1
    39     6    33    1
    40    11    34    1
    41    13    35    1
    42    16    36    1
    43    17    37    1
    44    19    38    1
    45    20    39    1
    46    21    40    1
    47    25    41    1
    48    27    42    1
