@<TRIPOS>MOLECULE
*****
 46 52 0 0 0
SMALL
GASTEIGER

@<TRIPOS>ATOM
      1 SI          5.7857   -0.9714   -0.8240 Si      1  UNL1        0.0000
      2 C           7.2155    0.0356   -0.1231 C.2     1  UNL1        0.0000
      3 C           6.7764    0.9783    0.7307 C.2     1  UNL1        0.0000
      4 C           5.3350    1.0175    0.9246 C.2     1  UNL1        0.0000
      5 C           4.6341    0.0995    0.2265 C.2     1  UNL1        0.0000
      6 C           3.1878   -0.0764    0.2269 C.ar    1  UNL1        0.0000
      7 C           2.5987   -1.2432    0.7016 C.ar    1  UNL1        0.0000
      8 C           1.2003   -1.3980    0.6981 C.ar    1  UNL1        0.0000
      9 C           0.2971   -0.4235    0.2072 C.ar    1  UNL1        0.0000
     10 C           0.9395    0.7836   -0.1940 C.ar    1  UNL1        0.0000
     11 C           2.3515    0.9493   -0.2027 C.ar    1  UNL1        0.0000
     12 C           0.0168    1.7871   -0.5499 C.ar    1  UNL1        0.0000
     13 C           0.3467    3.0565   -0.9683 C.ar    1  UNL1        0.0000
     14 N          -0.8245    3.7261   -1.2022 N.ar    1  UNL1        0.0000
     15 C          -1.8947    2.9013   -0.9361 C.ar    1  UNL1        0.0000
     16 C          -1.4127    1.6808   -0.5141 C.ar    1  UNL1        0.0000
     17 C          -2.1588    0.5192   -0.1464 C.ar    1  UNL1        0.0000
     18 C          -3.6159    0.3712   -0.0666 C.ar    1  UNL1        0.0000
     19 SI         -5.0218    1.6284   -0.2921 Si      1  UNL1        0.0000
     20 C          -6.2939    0.2949    0.0443 C.2     1  UNL1        0.0000
     21 C          -5.7328   -0.9007    0.2891 C.2     1  UNL1        0.0000
     22 C          -4.2744   -0.8552    0.2360 C.ar    1  UNL1        0.0000
     23 C          -3.3881   -1.9016    0.4050 C.ar    1  UNL1        0.0000
     24 C          -3.7302   -3.2154    0.6115 C.ar    1  UNL1        0.0000
     25 N          -2.5615   -3.9302    0.6323 N.ar    1  UNL1        0.0000
     26 C          -1.4899   -3.0859    0.4313 C.ar    1  UNL1        0.0000
     27 C          -1.9541   -1.7888    0.3578 C.ar    1  UNL1        0.0000
     28 C          -1.1996   -0.5756    0.1495 C.ar    1  UNL1        0.0000
     29 H           5.8318   -2.3848   -0.3697 H       1  UNL1        0.0000
     30 H           5.6254   -0.7524   -2.2834 H       1  UNL1        0.0000
     31 H           8.2371   -0.1624   -0.4056 H       1  UNL1        0.0000
     32 H           7.4260    1.6713    1.2511 H       1  UNL1        0.0000
     33 H           4.8877    1.7423    1.5946 H       1  UNL1        0.0000
     34 H           3.2099   -2.0450    1.1106 H       1  UNL1        0.0000
     35 H           0.8304   -2.3038    1.1620 H       1  UNL1        0.0000
     36 H           2.7878    1.8853   -0.5398 H       1  UNL1        0.0000
     37 H           1.2950    3.5512   -1.1249 H       1  UNL1        0.0000
     38 H          -0.8949    4.6816   -1.5281 H       1  UNL1        0.0000
     39 H          -2.8818    3.2990   -1.0973 H       1  UNL1        0.0000
     40 H          -5.1264    2.1447   -1.6812 H       1  UNL1        0.0000
     41 H          -5.0370    2.6805    0.7559 H       1  UNL1        0.0000
     42 H          -7.3499    0.5149    0.0290 H       1  UNL1        0.0000
     43 H          -6.2805   -1.8063    0.5058 H       1  UNL1        0.0000
     44 H          -4.6841   -3.7142    0.7115 H       1  UNL1        0.0000
     45 H          -2.4961   -4.9354    0.7273 H       1  UNL1        0.0000
     46 H          -0.5130   -3.5299    0.3295 H       1  UNL1        0.0000
@<TRIPOS>BOND
     1     1     2    1
     2     2     3    2
     3     3     4    1
     4     4     5    2
     5     5     6    1
     6     6     7   ar
     7     7     8   ar
     8     8     9   ar
     9     9    10   ar
    10    10    11   ar
    11    10    12   ar
    12    12    13   ar
    13    13    14   ar
    14    14    15   ar
    15    15    16   ar
    16    16    17   ar
    17    17    18   ar
    18    18    19    1
    19    19    20    1
    20    20    21    2
    21    21    22    1
    22    22    23   ar
    23    23    24   ar
    24    24    25   ar
    25    25    26   ar
    26    26    27   ar
    27    27    28   ar
    28     5     1    1
    29    11     6   ar
    30    16    12   ar
    31    28    17   ar
    32    28     9   ar
    33    22    18   ar
    34    27    23   ar
    35     1    29    1
    36     1    30    1
    37     2    31    1
    38     3    32    1
    39     4    33    1
    40     7    34    1
    41     8    35    1
    42    11    36    1
    43    13    37    1
    44    14    38    1
    45    15    39    1
    46    19    40    1
    47    19    41    1
    48    20    42    1
    49    21    43    1
    50    24    44    1
    51    25    45    1
    52    26    46    1
