@<TRIPOS>MOLECULE
*****
 35 35 0 0 0
SMALL
GASTEIGER

@<TRIPOS>ATOM
      1 C           5.9354    0.1167    1.4552 C.3     1  UNL1       -0.0307
      2 C           5.4570   -1.2479    0.9863 C.3     1  UNL1        0.0868
      3 O           4.1448   -1.5227    1.4757 O.3     1  UNL1       -0.4922
      4 C           3.0661   -1.1269    0.7381 C.ar    1  UNL1        0.1206
      5 C           3.0911   -0.3632   -0.4258 C.ar    1  UNL1       -0.0182
      6 C           1.8952   -0.0258   -1.0741 C.ar    1  UNL1       -0.0370
      7 C           0.6579   -0.4438   -0.5691 C.ar    1  UNL1        0.0336
      8 N          -0.4940   -0.0605   -1.2863 N.am    1  UNL1       -0.2855
      9 C          -1.8150   -0.3289   -0.9669 C.2     1  UNL1        0.2177
     10 O          -2.2224   -0.9655   -0.0021 O.2     1  UNL1       -0.2755
     11 C          -2.7686    0.2322   -2.0116 C.3     1  UNL1        0.0343
     12 C          -4.2160    0.2033   -1.5343 C.3     1  UNL1        0.0532
     13 C          -4.4461    1.2216   -0.4440 C.2     1  UNL1        0.3073
     14 O          -3.7370    2.1987   -0.2427 O.2     1  UNL1       -0.2508
     15 O          -5.5869    0.9219    0.2361 O.3     1  UNL1       -0.4679
     16 C          -5.8963    1.8335    1.2903 C.3     1  UNL1        0.0817
     17 C           0.6371   -1.2049    0.5978 C.ar    1  UNL1       -0.0370
     18 C           1.8328   -1.5403    1.2443 C.ar    1  UNL1       -0.0182
     19 H           5.8753    0.1895    2.5462 H       1  UNL1        0.0262
     20 H           5.3146    0.9211    1.0499 H       1  UNL1        0.0262
     21 H           6.9710    0.2902    1.1468 H       1  UNL1        0.0262
     22 H           5.5345   -1.3687   -0.1002 H       1  UNL1        0.0694
     23 H           6.1138   -2.0113    1.4193 H       1  UNL1        0.0694
     24 H           4.0189   -0.0013   -0.8554 H       1  UNL1        0.0655
     25 H           1.9514    0.5736   -1.9793 H       1  UNL1        0.0637
     26 H          -0.3318    0.5040   -2.1109 H       1  UNL1        0.1548
     27 H          -2.6736   -0.3911   -2.9087 H       1  UNL1        0.0364
     28 H          -2.4652    1.2523   -2.2749 H       1  UNL1        0.0364
     29 H          -4.4801   -0.7927   -1.1622 H       1  UNL1        0.0382
     30 H          -4.8838    0.4525   -2.3657 H       1  UNL1        0.0382
     31 H          -6.8921    1.5855    1.6700 H       1  UNL1        0.0661
     32 H          -5.9156    2.8662    0.9261 H       1  UNL1        0.0661
     33 H          -5.1774    1.7219    2.1084 H       1  UNL1        0.0661
     34 H          -0.2902   -1.5564    1.0385 H       1  UNL1        0.0637
     35 H           1.7951   -2.1325    2.1558 H       1  UNL1        0.0655
@<TRIPOS>BOND
     1     1     2    1
     2     2     3    1
     3     3     4    1
     4     4     5   ar
     5     5     6   ar
     6     6     7   ar
     7     7     8    1
     8     8     9   am
     9     9    10    2
    10     9    11    1
    11    11    12    1
    12    12    13    1
    13    13    14    2
    14    13    15    1
    15    15    16    1
    16     7    17   ar
    17    17    18   ar
    18    18     4   ar
    19     1    19    1
    20     1    20    1
    21     1    21    1
    22     2    22    1
    23     2    23    1
    24     5    24    1
    25     6    25    1
    26     8    26    1
    27    11    27    1
    28    11    28    1
    29    12    29    1
    30    12    30    1
    31    16    31    1
    32    16    32    1
    33    16    33    1
    34    17    34    1
    35    18    35    1
