@<TRIPOS>MOLECULE
*****
 44 45 0 0 0
SMALL
GASTEIGER

@<TRIPOS>ATOM
      1 C           8.0326    0.1562    0.0652 C.3     1  UNL1       -0.0307
      2 C           6.6552   -0.4600   -0.1023 C.3     1  UNL1        0.0868
      3 O           5.6865    0.5270    0.2468 O.3     1  UNL1       -0.4922
      4 C           4.3716    0.1665    0.1543 C.ar    1  UNL1        0.1206
      5 C           3.8840   -1.0752   -0.2400 C.ar    1  UNL1       -0.0182
      6 C           2.5016   -1.3033   -0.2886 C.ar    1  UNL1       -0.0374
      7 C           1.5759   -0.2981    0.0268 C.ar    1  UNL1        0.0273
      8 N           0.2142   -0.6233    0.0180 N.pl3   1  UNL1       -0.3436
      9 C          -0.7816    0.4449    0.0433 C.3     1  UNL1        0.0121
     10 C          -2.2035   -0.1429   -0.0229 C.3     1  UNL1       -0.0209
     11 C          -2.5337   -0.6991   -1.4145 C.3     1  UNL1       -0.0251
     12 C          -3.9849   -1.1505   -1.4902 C.3     1  UNL1        0.0487
     13 O          -4.8762   -0.0960   -1.1411 O.3     1  UNL1       -0.3739
     14 C          -4.6889    0.4525    0.1709 C.3     1  UNL1        0.0643
     15 C          -5.0995   -0.5585    1.2518 C.3     1  UNL1       -0.0361
     16 C          -5.6339    1.6597    0.2597 C.3     1  UNL1       -0.0361
     17 C          -3.2369    0.9350    0.3439 C.3     1  UNL1       -0.0199
     18 C           2.0839    0.9291    0.4603 C.ar    1  UNL1       -0.0374
     19 C           3.4640    1.1632    0.5089 C.ar    1  UNL1       -0.0182
     20 H           8.8154   -0.5633   -0.1910 H       1  UNL1        0.0262
     21 H           8.1829    0.4898    1.0973 H       1  UNL1        0.0262
     22 H           8.1405    1.0388   -0.5740 H       1  UNL1        0.0262
     23 H           6.5259   -0.7682   -1.1463 H       1  UNL1        0.0694
     24 H           6.5692   -1.3286    0.5607 H       1  UNL1        0.0694
     25 H           4.5437   -1.8931   -0.5073 H       1  UNL1        0.0655
     26 H           2.1500   -2.2913   -0.5767 H       1  UNL1        0.0637
     27 H           0.0212   -1.3450   -0.6709 H       1  UNL1        0.1461
     28 H          -0.6204    1.1398   -0.7902 H       1  UNL1        0.0464
     29 H          -0.6844    1.0049    0.9811 H       1  UNL1        0.0464
     30 H          -2.2739   -0.9609    0.7058 H       1  UNL1        0.0317
     31 H          -1.8801   -1.5392   -1.6705 H       1  UNL1        0.0290
     32 H          -2.3677    0.0857   -2.1635 H       1  UNL1        0.0290
     33 H          -4.1668   -2.0252   -0.8574 H       1  UNL1        0.0560
     34 H          -4.2200   -1.4498   -2.5170 H       1  UNL1        0.0560
     35 H          -4.4507   -1.4388    1.2692 H       1  UNL1        0.0257
     36 H          -6.1147   -0.9284    1.0676 H       1  UNL1        0.0257
     37 H          -5.0708   -0.1074    2.2495 H       1  UNL1        0.0257
     38 H          -6.6756    1.3512    0.1137 H       1  UNL1        0.0257
     39 H          -5.5542    2.1666    1.2270 H       1  UNL1        0.0257
     40 H          -5.4156    2.3862   -0.5317 H       1  UNL1        0.0257
     41 H          -3.0723    1.2831    1.3714 H       1  UNL1        0.0296
     42 H          -3.0686    1.7996   -0.3135 H       1  UNL1        0.0296
     43 H           1.4253    1.7338    0.7700 H       1  UNL1        0.0637
     44 H           3.8312    2.1325    0.8370 H       1  UNL1        0.0655
@<TRIPOS>BOND
     1     1     2    1
     2     2     3    1
     3     3     4    1
     4     4     5   ar
     5     5     6   ar
     6     6     7   ar
     7     7     8    1
     8     8     9    1
     9     9    10    1
    10    10    11    1
    11    11    12    1
    12    12    13    1
    13    13    14    1
    14    14    15    1
    15    14    16    1
    16    14    17    1
    17     7    18   ar
    18    18    19   ar
    19    19     4   ar
    20    17    10    1
    21     1    20    1
    22     1    21    1
    23     1    22    1
    24     2    23    1
    25     2    24    1
    26     5    25    1
    27     6    26    1
    28     8    27    1
    29     9    28    1
    30     9    29    1
    31    10    30    1
    32    11    31    1
    33    11    32    1
    34    12    33    1
    35    12    34    1
    36    15    35    1
    37    15    36    1
    38    15    37    1
    39    16    38    1
    40    16    39    1
    41    16    40    1
    42    17    41    1
    43    17    42    1
    44    18    43    1
    45    19    44    1
