@<TRIPOS>MOLECULE
*****
 45 46 0 0 0
SMALL
GASTEIGER

@<TRIPOS>ATOM
      1 C          -6.5417    0.9320   -1.1155 C.3     1  UNL1       -0.0307
      2 C          -5.1266    0.5638   -1.5240 C.3     1  UNL1        0.0868
      3 O          -4.3935    0.2603   -0.3392 O.3     1  UNL1       -0.4920
      4 C          -3.0899   -0.1436   -0.4724 C.ar    1  UNL1        0.1237
      5 C          -2.4140   -0.2097   -1.6907 C.ar    1  UNL1       -0.0178
      6 C          -1.0865   -0.6297   -1.7361 C.ar    1  UNL1       -0.0316
      7 C          -0.4220   -1.0115   -0.5637 C.ar    1  UNL1        0.1088
      8 S           1.2954   -1.4842   -0.7334 S.O2    1  UNL1        0.0612
      9 O           1.7607   -1.0607   -2.0398 O.2     1  UNL1       -0.1528
     10 O           1.4145   -2.8653   -0.3195 O.2     1  UNL1       -0.1528
     11 N           2.0965   -0.4983    0.4020 N.3     1  UNL1       -0.1741
     12 C           2.0477    0.9769    0.1342 C.3     1  UNL1        0.0333
     13 C           3.3993    1.5041   -0.3783 C.3     1  UNL1        0.0131
     14 N           4.4922    1.3363    0.6034 N.3     1  UNL1       -0.3028
     15 C           5.7896    1.3631   -0.0684 C.3     1  UNL1       -0.0127
     16 C           4.3139    0.1102    1.4088 C.3     1  UNL1        0.0131
     17 C           3.4747   -0.9872    0.7298 C.3     1  UNL1        0.0333
     18 C          -1.0875   -0.9911    0.6817 C.ar    1  UNL1       -0.0178
     19 C          -0.4071   -1.4175    1.9596 C.3     1  UNL1       -0.0375
     20 C          -2.4252   -0.5038    0.7236 C.ar    1  UNL1       -0.0040
     21 C          -3.1668   -0.4124    2.0396 C.3     1  UNL1       -0.0359
     22 H          -7.1495    1.1761   -1.9913 H       1  UNL1        0.0262
     23 H          -6.5359    1.7922   -0.4378 H       1  UNL1        0.0262
     24 H          -7.0147    0.1046   -0.5760 H       1  UNL1        0.0262
     25 H          -5.1617   -0.3092   -2.1859 H       1  UNL1        0.0694
     26 H          -4.6724    1.4152   -2.0435 H       1  UNL1        0.0694
     27 H          -2.8876    0.0663   -2.6270 H       1  UNL1        0.0655
     28 H          -0.5790   -0.6594   -2.6988 H       1  UNL1        0.0638
     29 H           1.7686    1.4784    1.0690 H       1  UNL1        0.0456
     30 H           1.2653    1.2235   -0.5906 H       1  UNL1        0.0456
     31 H           3.3028    2.5704   -0.6128 H       1  UNL1        0.0439
     32 H           3.6377    0.9858   -1.3168 H       1  UNL1        0.0439
     33 H           5.9073    2.2899   -0.6410 H       1  UNL1        0.0391
     34 H           5.9204    0.5152   -0.7503 H       1  UNL1        0.0391
     35 H           6.6021    1.3433    0.6663 H       1  UNL1        0.0391
     36 H           5.2804   -0.3039    1.7220 H       1  UNL1        0.0439
     37 H           3.8058    0.4060    2.3360 H       1  UNL1        0.0439
     38 H           3.3823   -1.8388    1.4130 H       1  UNL1        0.0456
     39 H           3.9859   -1.3275   -0.1787 H       1  UNL1        0.0456
     40 H           0.3547   -2.1819    1.7998 H       1  UNL1        0.0278
     41 H          -1.1172   -1.8785    2.6537 H       1  UNL1        0.0278
     42 H           0.0504   -0.5514    2.4473 H       1  UNL1        0.0278
     43 H          -2.5147   -0.0238    2.8287 H       1  UNL1        0.0279
     44 H          -3.5389   -1.4008    2.3265 H       1  UNL1        0.0279
     45 H          -4.0157    0.2767    1.9957 H       1  UNL1        0.0279
@<TRIPOS>BOND
     1     1     2    1
     2     2     3    1
     3     3     4    1
     4     4     5   ar
     5     5     6   ar
     6     6     7   ar
     7     7     8    1
     8     8     9    2
     9     8    10    2
    10     8    11    1
    11    11    12    1
    12    12    13    1
    13    13    14    1
    14    14    15    1
    15    14    16    1
    16    16    17    1
    17     7    18   ar
    18    18    19    1
    19    18    20   ar
    20    20    21    1
    21    20     4   ar
    22    17    11    1
    23     1    22    1
    24     1    23    1
    25     1    24    1
    26     2    25    1
    27     2    26    1
    28     5    27    1
    29     6    28    1
    30    12    29    1
    31    12    30    1
    32    13    31    1
    33    13    32    1
    34    15    33    1
    35    15    34    1
    36    15    35    1
    37    16    36    1
    38    16    37    1
    39    17    38    1
    40    17    39    1
    41    19    40    1
    42    19    41    1
    43    19    42    1
    44    21    43    1
    45    21    44    1
    46    21    45    1
