@<TRIPOS>MOLECULE
*****
 36 37 0 0 0
SMALL
GASTEIGER

@<TRIPOS>ATOM
      1 C           5.8254   -1.1242    0.4563 C.3     1  UNL1       -0.0307
      2 C           4.6686   -1.3301    1.4187 C.3     1  UNL1        0.0868
      3 O           3.9356   -0.1196    1.6005 O.3     1  UNL1       -0.4922
      4 C           2.9174    0.1778    0.7400 C.ar    1  UNL1        0.1206
      5 C           2.2321    1.3593    1.0474 C.ar    1  UNL1       -0.0181
      6 C           1.1670    1.7959    0.2578 C.ar    1  UNL1       -0.0319
      7 C           0.7805    1.0346   -0.8458 C.ar    1  UNL1        0.1055
      8 S          -0.5746    1.5874   -1.8511 S.O2    1  UNL1        0.0587
      9 O          -0.5257    3.0309   -1.9018 O.2     1  UNL1       -0.1530
     10 O          -0.6081    0.7788   -3.0493 O.2     1  UNL1       -0.1530
     11 N          -1.9038    1.1843   -0.9235 N.3     1  UNL1       -0.1856
     12 C          -2.1301   -0.2084   -0.5635 C.3     1  UNL1        0.0426
     13 C          -3.5556   -0.4243   -0.1269 C.ar    1  UNL1       -0.0291
     14 C          -3.8665   -0.7753    1.1896 C.ar    1  UNL1       -0.0391
     15 C          -5.1983   -0.9550    1.5311 C.ar    1  UNL1        0.0278
     16 N          -6.2227   -0.8085    0.6650 N.ar    1  UNL1       -0.2632
     17 C          -5.9033   -0.4656   -0.6009 C.ar    1  UNL1        0.0278
     18 C          -4.6044   -0.2655   -1.0390 C.ar    1  UNL1       -0.0391
     19 C           1.4660   -0.1368   -1.1762 C.ar    1  UNL1       -0.0319
     20 C           2.5333   -0.5643   -0.3786 C.ar    1  UNL1       -0.0181
     21 H           5.4724   -0.8546   -0.5434 H       1  UNL1        0.0262
     22 H           6.4662   -0.3044    0.7978 H       1  UNL1        0.0262
     23 H           6.4292   -2.0329    0.3783 H       1  UNL1        0.0262
     24 H           4.0271   -2.1699    1.1303 H       1  UNL1        0.0694
     25 H           5.0798   -1.5918    2.4004 H       1  UNL1        0.0694
     26 H           2.5400    1.9484    1.9090 H       1  UNL1        0.0655
     27 H           0.6567    2.7240    0.5040 H       1  UNL1        0.0638
     28 H          -2.2247    1.9120   -0.2886 H       1  UNL1        0.1484
     29 H          -1.9204   -0.8765   -1.4061 H       1  UNL1        0.0490
     30 H          -1.4529   -0.4823    0.2531 H       1  UNL1        0.0490
     31 H          -3.0958   -0.9088    1.9414 H       1  UNL1        0.0636
     32 H          -5.4850   -1.2296    2.5424 H       1  UNL1        0.0829
     33 H          -6.7457   -0.3504   -1.2771 H       1  UNL1        0.0829
     34 H          -4.4135    0.0151   -2.0707 H       1  UNL1        0.0636
     35 H           1.1845   -0.7189   -2.0515 H       1  UNL1        0.0638
     36 H           3.0494   -1.4733   -0.6692 H       1  UNL1        0.0655
@<TRIPOS>BOND
     1     1     2    1
     2     2     3    1
     3     3     4    1
     4     4     5   ar
     5     5     6   ar
     6     6     7   ar
     7     7     8    1
     8     8     9    2
     9     8    10    2
    10     8    11    1
    11    11    12    1
    12    12    13    1
    13    13    14   ar
    14    14    15   ar
    15    15    16   ar
    16    16    17   ar
    17    17    18   ar
    18     7    19   ar
    19    19    20   ar
    20    20     4   ar
    21    18    13   ar
    22     1    21    1
    23     1    22    1
    24     1    23    1
    25     2    24    1
    26     2    25    1
    27     5    26    1
    28     6    27    1
    29    11    28    1
    30    12    29    1
    31    12    30    1
    32    14    31    1
    33    15    32    1
    34    17    33    1
    35    18    34    1
    36    19    35    1
    37    20    36    1
