@<TRIPOS>MOLECULE
*****
 41 43 0 0 0
SMALL
GASTEIGER

@<TRIPOS>ATOM
      1 C          -3.7107   -3.0927   -1.1529 C.3     1  UNL1       -0.0307
      2 C          -2.5608   -2.3941   -1.8573 C.3     1  UNL1        0.0868
      3 O          -1.6390   -1.8490   -0.9147 O.3     1  UNL1       -0.4919
      4 C          -1.8528   -0.6042   -0.3846 C.ar    1  UNL1        0.1257
      5 C          -2.9410    0.2083   -0.6957 C.ar    1  UNL1       -0.0190
      6 C          -3.0655    1.4738   -0.1225 C.ar    1  UNL1       -0.0506
      7 C          -2.1027    1.9633    0.7658 C.ar    1  UNL1       -0.0173
      8 C          -2.2470    3.2485    1.3158 C.ar    1  UNL1       -0.0540
      9 C          -1.2976    3.7641    2.1949 C.ar    1  UNL1       -0.0612
     10 C          -0.1900    3.0003    2.5321 C.ar    1  UNL1       -0.0612
     11 C          -0.0367    1.7199    1.9939 C.ar    1  UNL1       -0.0536
     12 C          -0.9862    1.1611    1.1038 C.ar    1  UNL1       -0.0097
     13 C          -0.8779   -0.1468    0.5330 C.ar    1  UNL1        0.0190
     14 C           0.2939   -1.0491    0.8849 C.3     1  UNL1        0.0411
     15 N           1.4664   -0.6312    0.1280 N.pl3   1  UNL1       -0.3082
     16 C           2.6585   -1.1864    0.4487 C.ar    1  UNL1        0.2352
     17 N           2.9902   -1.9062    1.4997 N.ar    1  UNL1       -0.0923
     18 N           4.3213   -2.2172    1.3602 N.ar    1  UNL1       -0.0214
     19 N           4.8186   -1.6937    0.2497 N.ar    1  UNL1       -0.0426
     20 N           3.7885   -1.0440   -0.3194 N.ar    1  UNL1       -0.2138
     21 C           3.9750   -0.3132   -1.5478 C.3     1  UNL1        0.0438
     22 C           4.2452    1.1615   -1.3074 C.3     1  UNL1       -0.0453
     23 H          -3.3310   -3.8523   -0.4614 H       1  UNL1        0.0262
     24 H          -4.3033   -2.3914   -0.5581 H       1  UNL1        0.0262
     25 H          -4.3709   -3.5767   -1.8784 H       1  UNL1        0.0262
     26 H          -2.0044   -3.1440   -2.4314 H       1  UNL1        0.0694
     27 H          -2.9005   -1.6533   -2.5888 H       1  UNL1        0.0694
     28 H          -3.7222   -0.1071   -1.3782 H       1  UNL1        0.0654
     29 H          -3.9294    2.0814   -0.3854 H       1  UNL1        0.0625
     30 H          -3.1071    3.8638    1.0598 H       1  UNL1        0.0624
     31 H          -1.4227    4.7597    2.6117 H       1  UNL1        0.0618
     32 H           0.5600    3.3944    3.2130 H       1  UNL1        0.0618
     33 H           0.8542    1.1636    2.2788 H       1  UNL1        0.0624
     34 H           0.0698   -2.1011    0.6730 H       1  UNL1        0.0513
     35 H           0.4727   -1.0069    1.9669 H       1  UNL1        0.0513
     36 H           1.2475   -0.4078   -0.8370 H       1  UNL1        0.1493
     37 H           4.8126   -0.7695   -2.0874 H       1  UNL1        0.0508
     38 H           3.0798   -0.4476   -2.1635 H       1  UNL1        0.0508
     39 H           4.3937    1.6806   -2.2592 H       1  UNL1        0.0247
     40 H           5.1431    1.3030   -0.6965 H       1  UNL1        0.0247
     41 H           3.4085    1.6383   -0.7860 H       1  UNL1        0.0247
@<TRIPOS>BOND
     1     1     2    1
     2     2     3    1
     3     3     4    1
     4     4     5   ar
     5     5     6   ar
     6     6     7   ar
     7     7     8   ar
     8     8     9   ar
     9     9    10   ar
    10    10    11   ar
    11    11    12   ar
    12    12    13   ar
    13    13    14    1
    14    14    15    1
    15    15    16    1
    16    16    17   ar
    17    17    18   ar
    18    18    19   ar
    19    19    20   ar
    20    20    21    1
    21    21    22    1
    22    13     4   ar
    23    20    16   ar
    24    12     7   ar
    25     1    23    1
    26     1    24    1
    27     1    25    1
    28     2    26    1
    29     2    27    1
    30     5    28    1
    31     6    29    1
    32     8    30    1
    33     9    31    1
    34    10    32    1
    35    11    33    1
    36    14    34    1
    37    14    35    1
    38    15    36    1
    39    21    37    1
    40    21    38    1
    41    22    39    1
    42    22    40    1
    43    22    41    1
