@<TRIPOS>MOLECULE
*****
 34 37 0 0 0
SMALL
GASTEIGER

@<TRIPOS>ATOM
      1 C           6.6767    0.1701    0.1912 C.3     1  UNL1       -0.0307
      2 C           5.4423   -0.6577   -0.1180 C.3     1  UNL1        0.0868
      3 O           4.2947    0.1493    0.1431 O.3     1  UNL1       -0.4922
      4 C           3.0684   -0.4161   -0.0747 C.ar    1  UNL1        0.1211
      5 C           2.8341   -1.7128   -0.5299 C.ar    1  UNL1       -0.0199
      6 C           1.5257   -2.1639   -0.7093 C.ar    1  UNL1       -0.0577
      7 C           0.4485   -1.3204   -0.4342 C.ar    1  UNL1       -0.0518
      8 C           0.6675   -0.0136    0.0242 C.ar    1  UNL1        0.0124
      9 C          -0.5183    0.8389    0.3006 C.ar    1  UNL1        0.1325
     10 N          -1.7482    0.4187    0.1333 N.ar    1  UNL1       -0.1552
     11 N          -2.5566    1.4612    0.4822 N.ar    1  UNL1       -0.1825
     12 C          -3.9107    1.6615    0.5286 C.ar    1  UNL1        0.2208
     13 C          -4.9211    0.7133    0.1813 C.ar    1  UNL1        0.1734
     14 C          -4.7998   -0.5930   -0.2713 C.ar    1  UNL1       -0.0127
     15 C          -6.1080   -1.0993   -0.4699 C.ar    1  UNL1       -0.0232
     16 C          -6.9610   -0.0803   -0.1299 C.ar    1  UNL1        0.0927
     17 O          -6.2605    1.0113    0.2620 O.2     1  UNL1       -0.4597
     18 N          -4.1324    2.9009    0.9561 N.ar    1  UNL1       -0.1232
     19 N          -2.9056    3.5187    1.1922 N.ar    1  UNL1       -0.1198
     20 C          -2.0081    2.6250    0.8966 C.ar    1  UNL1        0.2186
     21 S          -0.3076    2.5153    0.8876 S.2     1  UNL1       -0.0262
     22 C           1.9852    0.4279    0.2005 C.ar    1  UNL1       -0.0102
     23 H           7.5883   -0.4051    0.0067 H       1  UNL1        0.0262
     24 H           6.6985    1.0749   -0.4252 H       1  UNL1        0.0262
     25 H           6.6699    0.4967    1.2365 H       1  UNL1        0.0262
     26 H           5.4367   -1.5457    0.5245 H       1  UNL1        0.0694
     27 H           5.4658   -0.9552   -1.1727 H       1  UNL1        0.0694
     28 H           3.6456   -2.3974   -0.7542 H       1  UNL1        0.0654
     29 H           1.3448   -3.1760   -1.0646 H       1  UNL1        0.0619
     30 H          -0.5619   -1.6965   -0.5824 H       1  UNL1        0.0624
     31 H          -3.8734   -1.1245   -0.4403 H       1  UNL1        0.0656
     32 H          -6.3921   -2.0826   -0.8170 H       1  UNL1        0.0649
     33 H          -8.0369    0.0251   -0.1116 H       1  UNL1        0.1029
     34 H           2.2092    1.4310    0.5534 H       1  UNL1        0.0661
@<TRIPOS>BOND
     1     1     2    1
     2     2     3    1
     3     3     4    1
     4     4     5   ar
     5     5     6   ar
     6     6     7   ar
     7     7     8   ar
     8     8     9    1
     9     9    10   ar
    10    10    11   ar
    11    11    12   ar
    12    12    13    1
    13    13    14   ar
    14    14    15   ar
    15    15    16   ar
    16    16    17   ar
    17    12    18   ar
    18    18    19   ar
    19    19    20   ar
    20    20    21   ar
    21     8    22   ar
    22    22     4   ar
    23    21     9   ar
    24    20    11   ar
    25    17    13   ar
    26     1    23    1
    27     1    24    1
    28     1    25    1
    29     2    26    1
    30     2    27    1
    31     5    28    1
    32     6    29    1
    33     7    30    1
    34    14    31    1
    35    15    32    1
    36    16    33    1
    37    22    34    1
