@<TRIPOS>MOLECULE
*****
 41 42 0 0 0
SMALL
GASTEIGER

@<TRIPOS>ATOM
      1 C           2.4978   -0.6889    2.2528 C.3     1  UNL1       -0.0307
      2 C           3.1013   -0.2193    0.9419 C.3     1  UNL1        0.0868
      3 O           2.3006   -0.7404   -0.1288 O.3     1  UNL1       -0.4915
      4 C           2.5558   -0.0851   -1.3078 C.ar    1  UNL1        0.1326
      5 C           3.8005   -0.2620   -1.9257 C.ar    1  UNL1       -0.0192
      6 C           4.0855    0.3832   -3.1286 C.ar    1  UNL1       -0.0583
      7 C           3.1260    1.1973   -3.7240 C.ar    1  UNL1       -0.0608
      8 C           1.8747    1.3548   -3.1233 C.ar    1  UNL1       -0.0461
      9 C           1.5662    0.7034   -1.9163 C.ar    1  UNL1        0.0786
     10 C           0.1932    0.9201   -1.3533 C.2     1  UNL1        0.2519
     11 O          -0.4513    1.8865   -1.7513 O.2     1  UNL1       -0.2697
     12 N          -0.2406   -0.0159   -0.4403 N.am    1  UNL1       -0.2784
     13 C          -1.4752   -0.0847    0.2455 C.ar    1  UNL1        0.0793
     14 C          -2.4970    0.8592    0.0903 C.ar    1  UNL1        0.0049
     15 C          -3.6916    0.7313    0.8020 C.ar    1  UNL1        0.1221
     16 O          -4.7612    1.5831    0.7396 O.3     1  UNL1       -0.4950
     17 C          -4.6445    2.6936   -0.1430 C.3     1  UNL1        0.0788
     18 C          -3.8596   -0.3470    1.6716 C.ar    1  UNL1       -0.0164
     19 C          -2.8497   -1.2975    1.8364 C.ar    1  UNL1       -0.0147
     20 C          -1.6546   -1.1736    1.1264 C.ar    1  UNL1        0.1414
     21 O          -0.5973   -2.0495    1.2097 O.3     1  UNL1       -0.4933
     22 C          -0.7439   -3.1635    2.0805 C.3     1  UNL1        0.0789
     23 H           2.4399   -1.7818    2.2826 H       1  UNL1        0.0262
     24 H           1.4763   -0.3108    2.3632 H       1  UNL1        0.0262
     25 H           3.0933   -0.3424    3.1020 H       1  UNL1        0.0262
     26 H           3.1165    0.8778    0.9228 H       1  UNL1        0.0694
     27 H           4.1256   -0.5996    0.8593 H       1  UNL1        0.0694
     28 H           4.5493   -0.9103   -1.4787 H       1  UNL1        0.0654
     29 H           5.0542    0.2474   -3.6033 H       1  UNL1        0.0619
     30 H           3.3443    1.7041   -4.6611 H       1  UNL1        0.0618
     31 H           1.1311    1.9858   -3.6080 H       1  UNL1        0.0626
     32 H           0.4027   -0.7704   -0.2038 H       1  UNL1        0.1552
     33 H          -2.3572    1.6927   -0.5846 H       1  UNL1        0.0674
     34 H          -5.5747    3.2668   -0.0818 H       1  UNL1        0.0660
     35 H          -3.8263    3.3550    0.1606 H       1  UNL1        0.0660
     36 H          -4.5255    2.3634   -1.1803 H       1  UNL1        0.0660
     37 H          -4.7897   -0.4474    2.2264 H       1  UNL1        0.0655
     38 H          -3.0321   -2.1162    2.5233 H       1  UNL1        0.0656
     39 H           0.1766   -3.7527    2.0253 H       1  UNL1        0.0660
     40 H          -0.8684   -2.8390    3.1188 H       1  UNL1        0.0660
     41 H          -1.5705   -3.8075    1.7629 H       1  UNL1        0.0660
@<TRIPOS>BOND
     1     1     2    1
     2     2     3    1
     3     3     4    1
     4     4     5   ar
     5     5     6   ar
     6     6     7   ar
     7     7     8   ar
     8     8     9   ar
     9     9    10    1
    10    10    11    2
    11    10    12   am
    12    12    13    1
    13    13    14   ar
    14    14    15   ar
    15    15    16    1
    16    16    17    1
    17    15    18   ar
    18    18    19   ar
    19    19    20   ar
    20    20    21    1
    21    21    22    1
    22     9     4   ar
    23    20    13   ar
    24     1    23    1
    25     1    24    1
    26     1    25    1
    27     2    26    1
    28     2    27    1
    29     5    28    1
    30     6    29    1
    31     7    30    1
    32     8    31    1
    33    12    32    1
    34    14    33    1
    35    17    34    1
    36    17    35    1
    37    17    36    1
    38    18    37    1
    39    19    38    1
    40    22    39    1
    41    22    40    1
    42    22    41    1
