@<TRIPOS>MOLECULE
*****
 32 32 0 0 0
SMALL
GASTEIGER

@<TRIPOS>ATOM
      1 C          -2.9123   -0.5902    2.1354 C.3     1  UNL1       -0.0307
      2 C          -2.7820   -0.1570    0.6867 C.3     1  UNL1        0.0868
      3 O          -1.6684   -0.8598    0.1145 O.3     1  UNL1       -0.4915
      4 C          -1.3526   -0.3395   -1.1171 C.ar    1  UNL1        0.1326
      5 C          -2.1790   -0.6549   -2.2027 C.ar    1  UNL1       -0.0192
      6 C          -1.8902   -0.1549   -3.4719 C.ar    1  UNL1       -0.0583
      7 C          -0.7701    0.6504   -3.6630 C.ar    1  UNL1       -0.0608
      8 C           0.0700    0.9451   -2.5864 C.ar    1  UNL1       -0.0461
      9 C          -0.2015    0.4419   -1.3034 C.ar    1  UNL1        0.0782
     10 C           0.7643    0.7909   -0.2170 C.2     1  UNL1        0.2476
     11 O           1.5693    1.7041   -0.3744 O.2     1  UNL1       -0.2701
     12 N           0.7187    0.0316    0.9312 N.am    1  UNL1       -0.3107
     13 C           1.6535    0.2078    2.0253 C.3     1  UNL1        0.0220
     14 C           2.9024   -0.6465    1.8737 C.3     1  UNL1        0.0603
     15 C           3.8370   -0.0964    0.8385 C.2     1  UNL1        0.3062
     16 O           4.1384   -0.6337   -0.2151 O.2     1  UNL1       -0.2510
     17 O           4.3832    1.0805    1.1984 O.3     1  UNL1       -0.4806
     18 H          -3.7547   -0.0873    2.6184 H       1  UNL1        0.0262
     19 H          -3.0610   -1.6730    2.2021 H       1  UNL1        0.0262
     20 H          -1.9974   -0.3591    2.6908 H       1  UNL1        0.0262
     21 H          -3.7036   -0.4079    0.1492 H       1  UNL1        0.0694
     22 H          -2.6190    0.9272    0.6453 H       1  UNL1        0.0694
     23 H          -3.0454   -1.2959   -2.0638 H       1  UNL1        0.0654
     24 H          -2.5354   -0.3975   -4.3128 H       1  UNL1        0.0619
     25 H          -0.5406    1.0419   -4.6513 H       1  UNL1        0.0618
     26 H           0.9507    1.5632   -2.7544 H       1  UNL1        0.0626
     27 H           0.0564   -0.7384    0.9645 H       1  UNL1        0.1490
     28 H           1.9014    1.2707    2.1180 H       1  UNL1        0.0467
     29 H           1.1178   -0.0915    2.9325 H       1  UNL1        0.0467
     30 H           3.4499   -0.6980    2.8217 H       1  UNL1        0.0393
     31 H           2.6425   -1.6744    1.5960 H       1  UNL1        0.0393
     32 H           4.8577    1.3704    0.3911 H       1  UNL1        0.2951
@<TRIPOS>BOND
     1     1     2    1
     2     2     3    1
     3     3     4    1
     4     4     5   ar
     5     5     6   ar
     6     6     7   ar
     7     7     8   ar
     8     8     9   ar
     9     9    10    1
    10    10    11    2
    11    10    12   am
    12    12    13    1
    13    13    14    1
    14    14    15    1
    15    15    16    2
    16    15    17    1
    17     9     4   ar
    18     1    18    1
    19     1    19    1
    20     1    20    1
    21     2    21    1
    22     2    22    1
    23     5    23    1
    24     6    24    1
    25     7    25    1
    26     8    26    1
    27    12    27    1
    28    13    28    1
    29    13    29    1
    30    14    30    1
    31    14    31    1
    32    17    32    1
