@<TRIPOS>MOLECULE
*****
 35 37 0 0 0
SMALL
GASTEIGER

@<TRIPOS>ATOM
      1 C          -1.4533   -2.8892   -1.5334 C.3     1  UNL1       -0.0306
      2 C          -2.2312   -1.6425   -1.1512 C.3     1  UNL1        0.0884
      3 O          -1.3568   -0.7947   -0.4081 O.3     1  UNL1       -0.4762
      4 C          -1.9209    0.4061   -0.0264 C.ar    1  UNL1        0.2260
      5 N          -3.2367    0.6041   -0.3081 N.ar    1  UNL1       -0.2176
      6 C          -3.8092    1.7589    0.0997 C.ar    1  UNL1        0.0421
      7 C          -5.2599    1.9590   -0.2204 C.3     1  UNL1       -0.0222
      8 C          -3.1054    2.7337    0.7926 C.ar    1  UNL1       -0.0397
      9 C          -1.7582    2.5140    1.0725 C.ar    1  UNL1       -0.0441
     10 C          -1.1306    1.3302    0.6578 C.ar    1  UNL1        0.0839
     11 C           0.2808    1.1144    0.9475 C.ar    1  UNL1        0.2075
     12 N           0.9291    1.7489    1.9413 N.ar    1  UNL1       -0.0554
     13 O           2.2352    1.2675    1.8498 O.2     1  UNL1       -0.3309
     14 C           2.2580    0.3971    0.7989 C.ar    1  UNL1        0.2771
     15 C           3.5288   -0.2507    0.4980 C.ar    1  UNL1        0.1280
     16 C           3.6235   -1.1735   -0.5412 C.ar    1  UNL1       -0.0310
     17 C           4.8544   -1.7718   -0.7986 C.ar    1  UNL1       -0.0582
     18 C           5.9513   -1.4336   -0.0153 C.ar    1  UNL1       -0.0436
     19 C           5.7725   -0.5069    0.9983 C.ar    1  UNL1        0.0284
     20 N           4.5919    0.0902    1.2720 N.ar    1  UNL1       -0.2501
     21 N           1.0888    0.2810    0.2065 N.ar    1  UNL1       -0.1856
     22 H          -0.5738   -2.6267   -2.1308 H       1  UNL1        0.0262
     23 H          -1.0882   -3.4051   -0.6391 H       1  UNL1        0.0262
     24 H          -2.0784   -3.5781   -2.1084 H       1  UNL1        0.0262
     25 H          -3.0937   -1.9334   -0.5397 H       1  UNL1        0.0694
     26 H          -2.5702   -1.1397   -2.0650 H       1  UNL1        0.0694
     27 H          -5.6590    1.1017   -0.7721 H       1  UNL1        0.0293
     28 H          -5.8387    2.0704    0.7017 H       1  UNL1        0.0293
     29 H          -5.3912    2.8527   -0.8384 H       1  UNL1        0.0293
     30 H          -3.5888    3.6515    1.1124 H       1  UNL1        0.0636
     31 H          -1.2005    3.2765    1.6131 H       1  UNL1        0.0627
     32 H           2.7527   -1.4243   -1.1407 H       1  UNL1        0.0640
     33 H           4.9544   -2.4951   -1.6031 H       1  UNL1        0.0619
     34 H           6.9234   -1.8817   -0.1897 H       1  UNL1        0.0633
     35 H           6.5999   -0.2106    1.6375 H       1  UNL1        0.0830
@<TRIPOS>BOND
     1     1     2    1
     2     2     3    1
     3     3     4    1
     4     4     5   ar
     5     5     6   ar
     6     6     7    1
     7     6     8   ar
     8     8     9   ar
     9     9    10   ar
    10    10    11    1
    11    11    12   ar
    12    12    13   ar
    13    13    14   ar
    14    14    15    1
    15    15    16   ar
    16    16    17   ar
    17    17    18   ar
    18    18    19   ar
    19    19    20   ar
    20    14    21   ar
    21    10     4   ar
    22    21    11   ar
    23    20    15   ar
    24     1    22    1
    25     1    23    1
    26     1    24    1
    27     2    25    1
    28     2    26    1
    29     7    27    1
    30     7    28    1
    31     7    29    1
    32     8    30    1
    33     9    31    1
    34    16    32    1
    35    17    33    1
    36    18    34    1
    37    19    35    1
