@<TRIPOS>MOLECULE
*****
 48 49 0 0 0
SMALL
GASTEIGER

@<TRIPOS>ATOM
      1 C          -7.4603    0.1128   -2.1105 C.3     1  UNL1       -0.0416
      2 C          -6.3186    0.9297   -1.5317 C.3     1  UNL1        0.0448
      3 O          -6.2135    0.7245   -0.1252 O.3     1  UNL1       -0.3800
      4 C          -5.4511   -0.4217    0.2499 C.3     1  UNL1        0.0491
      5 C          -3.9673   -0.0765    0.3316 C.3     1  UNL1       -0.0139
      6 C          -3.1460   -1.2869    0.7616 C.3     1  UNL1        0.0128
      7 N          -1.7207   -0.9780    0.8371 N.am    1  UNL1       -0.3263
      8 C          -1.0312   -0.4643    1.9209 C.2     1  UNL1        0.1329
      9 S          -1.7595   -0.1251    3.3972 S.2     1  UNL1       -0.0187
     10 N           0.3383   -0.2720    1.6606 N.am    1  UNL1       -0.3126
     11 C           1.0479   -1.0024    0.5977 C.3     1  UNL1        0.0154
     12 C           2.4924   -1.3169    0.9689 C.3     1  UNL1       -0.0186
     13 C           3.2934   -0.0496    1.3000 C.3     1  UNL1        0.0264
     14 N           4.0591    0.4222    0.1493 N.am    1  UNL1       -0.3059
     15 C           5.2398   -0.1920   -0.2422 C.2     1  UNL1        0.2796
     16 O           5.7162   -1.1229    0.4030 O.2     1  UNL1       -0.2668
     17 C           5.8326    0.3370   -1.4583 C.ar    1  UNL1        0.1890
     18 C           5.5419    1.4261   -2.2649 C.ar    1  UNL1       -0.0113
     19 C           6.4877    1.4241   -3.3206 C.ar    1  UNL1       -0.0231
     20 C           7.3011    0.3402   -3.1002 C.ar    1  UNL1        0.0928
     21 O           6.9166   -0.3210   -1.9812 O.2     1  UNL1       -0.4583
     22 C           2.4073    1.0784    1.8384 C.3     1  UNL1       -0.0186
     23 C           1.1852    0.5292    2.5617 C.3     1  UNL1        0.0154
     24 H          -7.6008    0.3426   -3.1706 H       1  UNL1        0.0252
     25 H          -8.3931    0.3220   -1.5763 H       1  UNL1        0.0252
     26 H          -7.2708   -0.9604   -2.0126 H       1  UNL1        0.0252
     27 H          -6.5308    1.9929   -1.6849 H       1  UNL1        0.0557
     28 H          -5.3752    0.7060   -2.0405 H       1  UNL1        0.0557
     29 H          -5.8062   -0.7284    1.2399 H       1  UNL1        0.0560
     30 H          -5.6318   -1.2576   -0.4347 H       1  UNL1        0.0560
     31 H          -3.8275    0.7606    1.0259 H       1  UNL1        0.0302
     32 H          -3.6076    0.2904   -0.6371 H       1  UNL1        0.0302
     33 H          -3.2462   -2.0869    0.0196 H       1  UNL1        0.0462
     34 H          -3.4956   -1.6827    1.7199 H       1  UNL1        0.0462
     35 H          -1.2703   -0.8580   -0.0570 H       1  UNL1        0.1477
     36 H           1.0115   -0.3804   -0.3044 H       1  UNL1        0.0465
     37 H           0.5290   -1.9426    0.3818 H       1  UNL1        0.0465
     38 H           2.9652   -1.8951    0.1670 H       1  UNL1        0.0298
     39 H           2.4833   -1.9638    1.8565 H       1  UNL1        0.0298
     40 H           4.0231   -0.3184    2.0752 H       1  UNL1        0.0499
     41 H           3.6184    1.0636   -0.4935 H       1  UNL1        0.1494
     42 H           4.7530    2.1482   -2.1129 H       1  UNL1        0.0657
     43 H           6.5706    2.1277   -4.1372 H       1  UNL1        0.0649
     44 H           8.1554   -0.0754   -3.6167 H       1  UNL1        0.1029
     45 H           2.0689    1.7259    1.0183 H       1  UNL1        0.0298
     46 H           2.9924    1.7163    2.5116 H       1  UNL1        0.0298
     47 H           1.4852   -0.1102    3.4007 H       1  UNL1        0.0465
     48 H           0.6082    1.3685    2.9631 H       1  UNL1        0.0465
@<TRIPOS>BOND
     1     1     2    1
     2     2     3    1
     3     3     4    1
     4     4     5    1
     5     5     6    1
     6     6     7    1
     7     7     8    1
     8     8     9    2
     9     8    10    1
    10    10    11    1
    11    11    12    1
    12    12    13    1
    13    13    14    1
    14    14    15   am
    15    15    16    2
    16    15    17    1
    17    17    18   ar
    18    18    19   ar
    19    19    20   ar
    20    20    21   ar
    21    13    22    1
    22    22    23    1
    23    23    10    1
    24    21    17   ar
    25     1    24    1
    26     1    25    1
    27     1    26    1
    28     2    27    1
    29     2    28    1
    30     4    29    1
    31     4    30    1
    32     5    31    1
    33     5    32    1
    34     6    33    1
    35     6    34    1
    36     7    35    1
    37    11    36    1
    38    11    37    1
    39    12    38    1
    40    12    39    1
    41    13    40    1
    42    14    41    1
    43    18    42    1
    44    19    43    1
    45    20    44    1
    46    22    45    1
    47    22    46    1
    48    23    47    1
    49    23    48    1
