@<TRIPOS>MOLECULE
*****
 49 56 0 0 0
SMALL
GASTEIGER

@<TRIPOS>ATOM
      1 SI          6.2809    1.3156    0.1677 Si      1  UNL1        0.0000
      2 C           7.6709    0.1316   -0.2933 C.2     1  UNL1        0.0000
      3 C           7.1886   -0.9968   -0.8450 C.2     1  UNL1        0.0000
      4 C           5.7399   -1.0599   -0.9643 C.2     1  UNL1        0.0000
      5 C           5.0760    0.0243   -0.5111 C.2     1  UNL1        0.0000
      6 C           3.6318    0.2191   -0.5011 C.ar    1  UNL1        0.0000
      7 C           3.0318    1.2415   -1.2324 C.ar    1  UNL1        0.0000
      8 C           1.6366    1.4187   -1.2172 C.ar    1  UNL1        0.0000
      9 C           0.7540    0.6037   -0.4691 C.ar    1  UNL1        0.0000
     10 C           1.4013   -0.4661    0.2131 C.ar    1  UNL1        0.0000
     11 C           2.8095   -0.6479    0.2134 C.ar    1  UNL1        0.0000
     12 C           0.4772   -1.2820    0.8940 C.ar    1  UNL1        0.0000
     13 C           0.7927   -2.3169    1.7449 C.ar    1  UNL1        0.0000
     14 N          -0.3836   -2.7698    2.2878 N.ar    1  UNL1        0.0000
     15 C          -1.4352   -2.0332    1.7955 C.ar    1  UNL1        0.0000
     16 C          -0.9478   -1.1634    0.8439 C.ar    1  UNL1        0.0000
     17 C          -1.6984   -0.1995    0.1135 C.ar    1  UNL1        0.0000
     18 C          -3.1998   -0.1226   -0.0491 C.ar    1  UNL1        0.0000
     19 C          -4.2118   -1.1392    0.0631 C.ar    1  UNL1        0.0000
     20 C          -3.9538   -2.4929    0.0595 C.ar    1  UNL1        0.0000
     21 S          -5.3757   -3.4443    0.2142 S.2     1  UNL1        0.0000
     22 C          -6.3847   -2.0635    0.1216 C.ar    1  UNL1        0.0000
     23 C          -5.6428   -0.9148   -0.0145 C.ar    1  UNL1        0.0000
     24 C          -6.2628    0.3073   -0.2387 C.ar    1  UNL1        0.0000
     25 C          -5.3176    1.3105   -0.4893 C.ar    1  UNL1        0.0000
     26 C          -3.8800    1.0969   -0.4322 C.ar    1  UNL1        0.0000
     27 C          -2.9252    2.0771   -0.7599 C.ar    1  UNL1        0.0000
     28 C          -3.1982    3.3671   -1.1459 C.ar    1  UNL1        0.0000
     29 O          -2.0395    4.0494   -1.3407 O.2     1  UNL1        0.0000
     30 C          -1.0170    3.1859   -1.0852 C.ar    1  UNL1        0.0000
     31 C          -1.4958    1.9325   -0.7751 C.ar    1  UNL1        0.0000
     32 C          -0.7369    0.7822   -0.4040 C.ar    1  UNL1        0.0000
     33 H           6.1778    1.4976    1.6372 H       1  UNL1        0.0000
     34 H           6.3139    2.5547   -0.6505 H       1  UNL1        0.0000
     35 H           8.7054    0.3786   -0.1153 H       1  UNL1        0.0000
     36 H           7.8103   -1.8156   -1.1860 H       1  UNL1        0.0000
     37 H           5.2597   -1.9296   -1.3971 H       1  UNL1        0.0000
     38 H           3.6337    1.9044   -1.8512 H       1  UNL1        0.0000
     39 H           1.2504    2.1907   -1.8740 H       1  UNL1        0.0000
     40 H           3.2512   -1.4698    0.7700 H       1  UNL1        0.0000
     41 H           1.7351   -2.7457    2.0561 H       1  UNL1        0.0000
     42 H          -0.4602   -3.4936    2.9912 H       1  UNL1        0.0000
     43 H          -2.4253   -2.1950    2.1976 H       1  UNL1        0.0000
     44 H          -3.0082   -3.0063   -0.0314 H       1  UNL1        0.0000
     45 H          -7.4597   -2.1805    0.1287 H       1  UNL1        0.0000
     46 H          -7.3298    0.4742   -0.2989 H       1  UNL1        0.0000
     47 H          -5.6977    2.2964   -0.7537 H       1  UNL1        0.0000
     48 H          -4.0985    3.9438   -1.3020 H       1  UNL1        0.0000
     49 H          -0.0423    3.6450   -1.1418 H       1  UNL1        0.0000
@<TRIPOS>BOND
     1     1     2    1
     2     2     3    2
     3     3     4    1
     4     4     5    2
     5     5     6    1
     6     6     7   ar
     7     7     8   ar
     8     8     9   ar
     9     9    10   ar
    10    10    11   ar
    11    10    12   ar
    12    12    13   ar
    13    13    14   ar
    14    14    15   ar
    15    15    16   ar
    16    16    17   ar
    17    17    18   ar
    18    18    19   ar
    19    19    20   ar
    20    20    21   ar
    21    21    22   ar
    22    22    23   ar
    23    23    24   ar
    24    24    25   ar
    25    25    26   ar
    26    26    27   ar
    27    27    28   ar
    28    28    29   ar
    29    29    30   ar
    30    30    31   ar
    31    31    32   ar
    32     5     1    1
    33    11     6   ar
    34    16    12   ar
    35    32    17   ar
    36    32     9   ar
    37    26    18   ar
    38    31    27   ar
    39    23    19   ar
    40     1    33    1
    41     1    34    1
    42     2    35    1
    43     3    36    1
    44     4    37    1
    45     7    38    1
    46     8    39    1
    47    11    40    1
    48    13    41    1
    49    14    42    1
    50    15    43    1
    51    20    44    1
    52    22    45    1
    53    24    46    1
    54    25    47    1
    55    28    48    1
    56    30    49    1
