@<TRIPOS>MOLECULE
*****
 38 39 0 0 0
SMALL
GASTEIGER

@<TRIPOS>ATOM
      1 C           5.7172    0.8188   -0.0562 C.3     1  UNL1       -0.0416
      2 C           4.2271    0.9373   -0.3083 C.3     1  UNL1        0.0449
      3 O           3.7377   -0.3406   -0.7117 O.3     1  UNL1       -0.3783
      4 C           2.3309   -0.3470   -0.9629 C.3     1  UNL1        0.0656
      5 C           1.5404   -0.5906    0.3194 C.3     1  UNL1        0.0493
      6 N           0.1095   -0.4807    0.1158 N.ar    1  UNL1       -0.3110
      7 C          -0.6666    0.6543    0.2143 C.ar    1  UNL1        0.1717
      8 S          -0.0059    2.2183    0.5652 S.3     1  UNL1       -0.0879
      9 C          -1.5100    3.2248    0.7381 C.3     1  UNL1       -0.0017
     10 C          -2.1781    3.0084    2.0853 C.3     1  UNL1       -0.0558
     11 N          -1.9391    0.4028   -0.0119 N.ar    1  UNL1       -0.2036
     12 C          -1.9822   -0.9306   -0.2675 C.ar    1  UNL1        0.1690
     13 C          -0.7438   -1.5041   -0.2077 C.ar    1  UNL1        0.1522
     14 C          -0.5340   -2.8874   -0.4601 C.ar    1  UNL1        0.2799
     15 O           0.5536   -3.4504   -0.4516 O.2     1  UNL1       -0.2654
     16 N          -1.7049   -3.5567   -0.7364 N.ar    1  UNL1       -0.2731
     17 C          -2.9790   -3.0247   -0.8134 C.ar    1  UNL1        0.3307
     18 O          -3.9182   -3.7689   -1.0946 O.2     1  UNL1       -0.2464
     19 N          -3.1117   -1.6624   -0.5664 N.ar    1  UNL1       -0.2797
     20 C          -4.4112   -1.0221   -0.6274 C.3     1  UNL1        0.0181
     21 H           6.1384    1.7797    0.2525 H       1  UNL1        0.0252
     22 H           5.9182    0.0775    0.7243 H       1  UNL1        0.0252
     23 H           6.2355    0.4794   -0.9591 H       1  UNL1        0.0252
     24 H           4.0431    1.6691   -1.1024 H       1  UNL1        0.0557
     25 H           3.7235    1.2664    0.6059 H       1  UNL1        0.0557
     26 H           2.1358   -1.1634   -1.6675 H       1  UNL1        0.0577
     27 H           2.0291    0.5792   -1.4667 H       1  UNL1        0.0577
     28 H           1.7634   -1.5836    0.7241 H       1  UNL1        0.0515
     29 H           1.8312    0.1040    1.1136 H       1  UNL1        0.0515
     30 H          -2.2064    3.0219   -0.0818 H       1  UNL1        0.0378
     31 H          -1.2128    4.2752    0.6524 H       1  UNL1        0.0378
     32 H          -3.0547    3.6590    2.1726 H       1  UNL1        0.0238
     33 H          -2.5211    1.9770    2.2131 H       1  UNL1        0.0238
     34 H          -1.5019    3.2539    2.9112 H       1  UNL1        0.0238
     35 H          -1.6269   -4.5428   -0.9299 H       1  UNL1        0.1735
     36 H          -5.2034   -1.7375   -0.8636 H       1  UNL1        0.0458
     37 H          -4.6300   -0.5636    0.3421 H       1  UNL1        0.0458
     38 H          -4.3927   -0.2498   -1.4028 H       1  UNL1        0.0458
@<TRIPOS>BOND
     1     1     2    1
     2     2     3    1
     3     3     4    1
     4     4     5    1
     5     5     6    1
     6     6     7   ar
     7     7     8    1
     8     8     9    1
     9     9    10    1
    10     7    11   ar
    11    11    12   ar
    12    12    13   ar
    13    13    14   ar
    14    14    15    2
    15    14    16   ar
    16    16    17   ar
    17    17    18    2
    18    17    19   ar
    19    19    20    1
    20    13     6   ar
    21    19    12   ar
    22     1    21    1
    23     1    22    1
    24     1    23    1
    25     2    24    1
    26     2    25    1
    27     4    26    1
    28     4    27    1
    29     5    28    1
    30     5    29    1
    31     9    30    1
    32     9    31    1
    33    10    32    1
    34    10    33    1
    35    10    34    1
    36    16    35    1
    37    20    36    1
    38    20    37    1
    39    20    38    1
