@<TRIPOS>MOLECULE
*****
 37 39 0 0 0
SMALL
GASTEIGER

@<TRIPOS>ATOM
      1 C           4.7770   -2.0925   -1.0805 C.3     1  UNL1       -0.0452
      2 C           3.9019   -0.9942   -0.5102 C.3     1  UNL1        0.0714
      3 S           2.2186   -1.5434   -0.3157 S.O2    1  UNL1        0.0299
      4 O           1.6117   -1.7486   -1.6161 O.2     1  UNL1       -0.1664
      5 O           2.1432   -2.5467    0.7280 O.2     1  UNL1       -0.1664
      6 C           1.3842   -0.1336    0.3541 C.ar    1  UNL1        0.2524
      7 N           1.9683    1.0315    0.5855 N.ar    1  UNL1       -0.2116
      8 C           1.0007    1.8248    1.1422 C.ar    1  UNL1        0.0910
      9 C           1.0915    3.1503    1.5919 C.ar    1  UNL1       -0.0342
     10 C          -0.0428    3.7541    2.1459 C.ar    1  UNL1       -0.0596
     11 C          -1.2430    3.0510    2.2512 C.ar    1  UNL1       -0.0597
     12 C          -1.3521    1.7285    1.8059 C.ar    1  UNL1       -0.0360
     13 C          -0.2076    1.1430    1.2497 C.ar    1  UNL1        0.0704
     14 N           0.0527   -0.0997    0.7088 N.ar    1  UNL1       -0.3046
     15 C          -0.9039   -1.1986    0.6068 C.3     1  UNL1        0.0528
     16 C          -2.0232   -0.9120   -0.3711 C.ar    1  UNL1       -0.0094
     17 C          -1.7129   -0.5493   -1.6969 C.ar    1  UNL1       -0.0555
     18 C          -2.7182   -0.2955   -2.6324 C.ar    1  UNL1       -0.0614
     19 C          -4.0548   -0.4109   -2.2678 C.ar    1  UNL1       -0.0604
     20 C          -4.3852   -0.7883   -0.9683 C.ar    1  UNL1       -0.0431
     21 C          -3.3801   -1.0440   -0.0280 C.ar    1  UNL1        0.0458
     22 CL         -3.8916   -1.5288    1.5505 Cl      1  UNL1       -0.0832
     23 H           4.7854   -2.9695   -0.4253 H       1  UNL1        0.0245
     24 H           5.8065   -1.7394   -1.1929 H       1  UNL1        0.0245
     25 H           4.4160   -2.4133   -2.0629 H       1  UNL1        0.0245
     26 H           3.8957   -0.1295   -1.1802 H       1  UNL1        0.0502
     27 H           4.2696   -0.6902    0.4743 H       1  UNL1        0.0502
     28 H           2.0286    3.6900    1.5120 H       1  UNL1        0.0639
     29 H           0.0148    4.7809    2.4993 H       1  UNL1        0.0618
     30 H          -2.1128    3.5392    2.6869 H       1  UNL1        0.0618
     31 H          -2.2917    1.1943    1.8931 H       1  UNL1        0.0639
     32 H          -0.3926   -2.1117    0.2939 H       1  UNL1        0.0543
     33 H          -1.2529   -1.3703    1.6290 H       1  UNL1        0.0543
     34 H          -0.6773   -0.4623   -2.0226 H       1  UNL1        0.0621
     35 H          -2.4527   -0.0122   -3.6485 H       1  UNL1        0.0618
     36 H          -4.8381   -0.2153   -2.9957 H       1  UNL1        0.0618
     37 H          -5.4329   -0.8876   -0.6939 H       1  UNL1        0.0632
@<TRIPOS>BOND
     1     1     2    1
     2     2     3    1
     3     3     4    2
     4     3     5    2
     5     3     6    1
     6     6     7   ar
     7     7     8   ar
     8     8     9   ar
     9     9    10   ar
    10    10    11   ar
    11    11    12   ar
    12    12    13   ar
    13    13    14   ar
    14    14    15    1
    15    15    16    1
    16    16    17   ar
    17    17    18   ar
    18    18    19   ar
    19    19    20   ar
    20    20    21   ar
    21    21    22    1
    22    14     6   ar
    23    21    16   ar
    24    13     8   ar
    25     1    23    1
    26     1    24    1
    27     1    25    1
    28     2    26    1
    29     2    27    1
    30     9    28    1
    31    10    29    1
    32    11    30    1
    33    12    31    1
    34    15    32    1
    35    15    33    1
    36    17    34    1
    37    18    35    1
    38    19    36    1
    39    20    37    1
