@<TRIPOS>MOLECULE
*****
 38 39 0 0 0
SMALL
GASTEIGER

@<TRIPOS>ATOM
      1 C           4.7752    0.7664   -0.8837 C.3     1  UNL1       -0.0442
      2 C           4.2167   -0.6213   -0.6494 C.3     1  UNL1        0.0791
      3 S           3.5484   -0.8760    0.9972 S.O2    1  UNL1        0.0319
      4 O           4.2937   -0.0561    1.9281 O.2     1  UNL1       -0.1580
      5 O           3.4449   -2.3073    1.1949 O.2     1  UNL1       -0.1580
      6 N           1.9823   -0.2741    0.9130 N.3     1  UNL1       -0.1765
      7 C           1.7700    1.1804    0.8044 C.3     1  UNL1        0.0245
      8 C           0.4178    1.5367    1.4212 C.3     1  UNL1       -0.0128
      9 C          -0.6976    0.7389    0.7922 C.ar    1  UNL1       -0.0380
     10 C          -2.0123    1.2284    0.8146 C.ar    1  UNL1       -0.0128
     11 C          -3.0606    0.4878    0.2574 C.ar    1  UNL1        0.1618
     12 O          -4.3706    0.8986    0.2270 O.3     1  UNL1       -0.4914
     13 C          -4.6939    2.1232    0.8689 C.3     1  UNL1        0.0790
     14 C          -2.7931   -0.7679   -0.3212 C.ar    1  UNL1        0.1618
     15 O          -3.8730   -1.4295   -0.8524 O.3     1  UNL1       -0.4914
     16 C          -3.6717   -2.7551   -1.3197 C.3     1  UNL1        0.0790
     17 C          -1.4827   -1.2600   -0.3307 C.ar    1  UNL1       -0.0116
     18 C          -0.4290   -0.5188    0.2299 C.ar    1  UNL1       -0.0248
     19 C           0.9770   -1.0878    0.1964 C.3     1  UNL1        0.0455
     20 H           4.0094    1.5383   -0.7884 H       1  UNL1        0.0246
     21 H           5.5742    0.9973   -0.1722 H       1  UNL1        0.0246
     22 H           5.1956    0.8359   -1.8920 H       1  UNL1        0.0246
     23 H           3.4489   -0.8784   -1.3825 H       1  UNL1        0.0513
     24 H           5.0249   -1.3536   -0.7571 H       1  UNL1        0.0513
     25 H           1.7942    1.4770   -0.2507 H       1  UNL1        0.0447
     26 H           2.5512    1.7342    1.3341 H       1  UNL1        0.0447
     27 H           0.4273    1.3278    2.4980 H       1  UNL1        0.0326
     28 H           0.2383    2.6095    1.2848 H       1  UNL1        0.0326
     29 H          -2.1922    2.1951    1.2739 H       1  UNL1        0.0658
     30 H          -4.4533    2.0870    1.9366 H       1  UNL1        0.0660
     31 H          -5.7739    2.2740    0.7773 H       1  UNL1        0.0660
     32 H          -4.1985    2.9678    0.3789 H       1  UNL1        0.0660
     33 H          -4.6412   -3.1468   -1.6425 H       1  UNL1        0.0660
     34 H          -3.2996   -3.4060   -0.5216 H       1  UNL1        0.0660
     35 H          -3.0032   -2.7688   -2.1867 H       1  UNL1        0.0660
     36 H          -1.2533   -2.2259   -0.7698 H       1  UNL1        0.0658
     37 H           0.9386   -2.0833    0.6536 H       1  UNL1        0.0493
     38 H           1.2711   -1.1878   -0.8540 H       1  UNL1        0.0493
@<TRIPOS>BOND
     1     1     2    1
     2     2     3    1
     3     3     4    2
     4     3     5    2
     5     3     6    1
     6     6     7    1
     7     7     8    1
     8     8     9    1
     9     9    10   ar
    10    10    11   ar
    11    11    12    1
    12    12    13    1
    13    11    14   ar
    14    14    15    1
    15    15    16    1
    16    14    17   ar
    17    17    18   ar
    18    18    19    1
    19    19     6    1
    20    18     9   ar
    21     1    20    1
    22     1    21    1
    23     1    22    1
    24     2    23    1
    25     2    24    1
    26     7    25    1
    27     7    26    1
    28     8    27    1
    29     8    28    1
    30    10    29    1
    31    13    30    1
    32    13    31    1
    33    13    32    1
    34    16    33    1
    35    16    34    1
    36    16    35    1
    37    17    36    1
    38    19    37    1
    39    19    38    1
