@<TRIPOS>MOLECULE
*****
 39 41 0 0 0
SMALL
GASTEIGER

@<TRIPOS>ATOM
      1 C          -3.3001    4.7217    0.0372 C.3     1  UNL1       -0.0558
      2 C          -2.6211    3.3660    0.1257 C.3     1  UNL1       -0.0031
      3 S          -0.8786    3.5142   -0.3864 S.3     1  UNL1       -0.1060
      4 C          -0.3271    1.8247   -0.1828 C.ar    1  UNL1        0.1026
      5 C           0.9923    1.5284   -0.4514 C.ar    1  UNL1        0.0103
      6 C           1.3974    0.2200   -0.2937 C.ar    1  UNL1        0.1262
      7 N           2.6954   -0.1694   -0.5244 N.pl3   1  UNL1       -0.3151
      8 C           3.0688   -1.5729   -0.3928 C.3     1  UNL1        0.0135
      9 C           4.5459   -1.5734   -0.7738 C.3     1  UNL1       -0.0358
     10 C           4.6098   -0.5095   -1.8580 C.3     1  UNL1       -0.0358
     11 C           3.6325    0.5608   -1.3701 C.3     1  UNL1        0.0135
     12 N           0.5237   -0.7106    0.1272 N.ar    1  UNL1       -0.2126
     13 C          -0.7471   -0.3407    0.3681 C.ar    1  UNL1        0.1629
     14 C          -1.6924   -1.3829    0.8231 C.ar    1  UNL1        0.0194
     15 C          -1.2770   -2.7171    1.0193 C.ar    1  UNL1       -0.0483
     16 C          -2.1687   -3.7052    1.4494 C.ar    1  UNL1       -0.0258
     17 C          -3.4936   -3.3723    1.6904 C.ar    1  UNL1        0.1234
     18 F          -4.3491   -4.3169    2.1020 F       1  UNL1       -0.2055
     19 C          -3.9429   -2.0722    1.5100 C.ar    1  UNL1       -0.0258
     20 C          -3.0481   -1.0868    1.0798 C.ar    1  UNL1       -0.0483
     21 N          -1.2147    0.9072    0.2224 N.ar    1  UNL1       -0.2209
     22 H          -4.3474    4.6338    0.3451 H       1  UNL1        0.0238
     23 H          -3.2882    5.1119   -0.9862 H       1  UNL1        0.0238
     24 H          -2.8225    5.4548    0.6962 H       1  UNL1        0.0238
     25 H          -3.1382    2.6559   -0.5277 H       1  UNL1        0.0377
     26 H          -2.6724    2.9989    1.1558 H       1  UNL1        0.0377
     27 H           1.6803    2.3030   -0.7604 H       1  UNL1        0.0678
     28 H           2.4978   -2.1946   -1.0933 H       1  UNL1        0.0464
     29 H           2.9270   -1.9496    0.6258 H       1  UNL1        0.0464
     30 H           5.1587   -1.2711    0.0840 H       1  UNL1        0.0281
     31 H           4.8907   -2.5526   -1.1169 H       1  UNL1        0.0281
     32 H           4.2600   -0.9276   -2.8098 H       1  UNL1        0.0281
     33 H           5.6187   -0.1160   -2.0103 H       1  UNL1        0.0281
     34 H           4.1537    1.3190   -0.7754 H       1  UNL1        0.0464
     35 H           3.1519    1.0453   -2.2272 H       1  UNL1        0.0464
     36 H          -0.2399   -2.9956    0.8357 H       1  UNL1        0.0625
     37 H          -1.8339   -4.7269    1.5961 H       1  UNL1        0.0646
     38 H          -4.9827   -1.8296    1.7035 H       1  UNL1        0.0646
     39 H          -3.4188   -0.0719    0.9438 H       1  UNL1        0.0625
@<TRIPOS>BOND
     1     1     2    1
     2     2     3    1
     3     3     4    1
     4     4     5   ar
     5     5     6   ar
     6     6     7    1
     7     7     8    1
     8     8     9    1
     9     9    10    1
    10    10    11    1
    11     6    12   ar
    12    12    13   ar
    13    13    14    1
    14    14    15   ar
    15    15    16   ar
    16    16    17   ar
    17    17    18    1
    18    17    19   ar
    19    19    20   ar
    20    13    21   ar
    21    21     4   ar
    22    11     7    1
    23    20    14   ar
    24     1    22    1
    25     1    23    1
    26     1    24    1
    27     2    25    1
    28     2    26    1
    29     5    27    1
    30     8    28    1
    31     8    29    1
    32     9    30    1
    33     9    31    1
    34    10    32    1
    35    10    33    1
    36    11    34    1
    37    11    35    1
    38    15    36    1
    39    16    37    1
    40    19    38    1
    41    20    39    1
