@<TRIPOS>MOLECULE
*****
 37 38 0 0 0
SMALL
GASTEIGER

@<TRIPOS>ATOM
      1 C          -2.3471   -1.0046   -1.8355 C.3     1  UNL1       -0.0559
      2 C          -2.7729   -1.9884   -0.7603 C.3     1  UNL1       -0.0045
      3 S          -1.7738   -1.8170    0.7590 S.3     1  UNL1       -0.1247
      4 C          -2.5310   -0.3507    1.4617 C.ar    1  UNL1        0.0200
      5 C          -3.7041   -0.5632    2.2090 C.ar    1  UNL1       -0.0476
      6 C          -4.3953    0.5031    2.7864 C.ar    1  UNL1       -0.0607
      7 C          -3.9247    1.8003    2.6267 C.ar    1  UNL1       -0.0610
      8 C          -2.7573    2.0279    1.8981 C.ar    1  UNL1       -0.0486
      9 C          -2.0397    0.9623    1.3199 C.ar    1  UNL1        0.0504
     10 C          -0.8010    1.3511    0.5710 C.2     1  UNL1        0.2493
     11 O          -0.7859    2.4465    0.0181 O.2     1  UNL1       -0.2698
     12 N           0.2372    0.4432    0.6034 N.am    1  UNL1       -0.2814
     13 C           1.5086    0.5560    0.0047 C.ar    1  UNL1        0.0371
     14 C           1.9463    1.6787   -0.6955 C.ar    1  UNL1       -0.0402
     15 C           3.2254    1.7042   -1.2581 C.ar    1  UNL1       -0.0566
     16 C           4.0798    0.6081   -1.1259 C.ar    1  UNL1       -0.0198
     17 C           3.6563   -0.5206   -0.4279 C.ar    1  UNL1        0.1219
     18 O           4.3855   -1.6601   -0.2220 O.3     1  UNL1       -0.4951
     19 C           5.6975   -1.6903   -0.7697 C.3     1  UNL1        0.0788
     20 C           2.3740   -0.5386    0.1328 C.ar    1  UNL1        0.0013
     21 H          -2.5500    0.0301   -1.5442 H       1  UNL1        0.0238
     22 H          -1.2817   -1.1001   -2.0707 H       1  UNL1        0.0238
     23 H          -2.9075   -1.1979   -2.7564 H       1  UNL1        0.0238
     24 H          -2.6280   -3.0086   -1.1305 H       1  UNL1        0.0377
     25 H          -3.8368   -1.8743   -0.5298 H       1  UNL1        0.0377
     26 H          -4.0955   -1.5700    2.3464 H       1  UNL1        0.0629
     27 H          -5.3022    0.3185    3.3573 H       1  UNL1        0.0618
     28 H          -4.4611    2.6367    3.0687 H       1  UNL1        0.0618
     29 H          -2.3989    3.0506    1.7836 H       1  UNL1        0.0625
     30 H           0.0483   -0.4380    1.0707 H       1  UNL1        0.1551
     31 H           1.3173    2.5541   -0.8214 H       1  UNL1        0.0636
     32 H           3.5536    2.5868   -1.8017 H       1  UNL1        0.0619
     33 H           5.0636    0.6700   -1.5780 H       1  UNL1        0.0654
     34 H           6.3273   -0.9101   -0.3294 H       1  UNL1        0.0660
     35 H           6.1423   -2.6580   -0.5183 H       1  UNL1        0.0660
     36 H           5.6715   -1.6095   -1.8614 H       1  UNL1        0.0660
     37 H           2.0600   -1.4286    0.6727 H       1  UNL1        0.0673
@<TRIPOS>BOND
     1     1     2    1
     2     2     3    1
     3     3     4    1
     4     4     5   ar
     5     5     6   ar
     6     6     7   ar
     7     7     8   ar
     8     8     9   ar
     9     9    10    1
    10    10    11    2
    11    10    12   am
    12    12    13    1
    13    13    14   ar
    14    14    15   ar
    15    15    16   ar
    16    16    17   ar
    17    17    18    1
    18    18    19    1
    19    17    20   ar
    20     9     4   ar
    21    20    13   ar
    22     1    21    1
    23     1    22    1
    24     1    23    1
    25     2    24    1
    26     2    25    1
    27     5    26    1
    28     6    27    1
    29     7    28    1
    30     8    29    1
    31    12    30    1
    32    14    31    1
    33    15    32    1
    34    16    33    1
    35    19    34    1
    36    19    35    1
    37    19    36    1
    38    20    37    1
