@<TRIPOS>MOLECULE
*****
 31 33 0 0 0
SMALL
GASTEIGER

@<TRIPOS>ATOM
      1 C           1.4992   -2.4145   -2.6250 C.3     1  UNL1       -0.0558
      2 C           2.6458   -1.7638   -1.8703 C.3     1  UNL1       -0.0017
      3 S           2.6625    0.0390   -2.0963 S.3     1  UNL1       -0.0879
      4 C           1.2557    0.5239   -1.1452 C.ar    1  UNL1        0.1720
      5 N           0.9536   -0.2202   -0.1226 N.ar    1  UNL1       -0.2209
      6 C          -0.1605    0.2102    0.5879 C.ar    1  UNL1        0.1043
      7 C          -0.8618    1.3241    0.2455 C.ar    1  UNL1        0.1314
      8 N          -1.8839    1.4622    1.1425 N.ar    1  UNL1       -0.3487
      9 C          -1.8404    0.4288    2.0599 C.ar    1  UNL1        0.0491
     10 C          -2.6741    0.1519    3.1496 C.ar    1  UNL1       -0.0377
     11 C          -2.3803   -0.9802    3.9166 C.ar    1  UNL1       -0.0598
     12 C          -1.2985   -1.8030    3.6056 C.ar    1  UNL1       -0.0610
     13 C          -0.4746   -1.5163    2.5115 C.ar    1  UNL1       -0.0505
     14 C          -0.7473   -0.3815    1.7251 C.ar    1  UNL1        0.0259
     15 C          -0.5282    2.1513   -0.8622 C.ar    1  UNL1        0.2785
     16 O          -1.1692    3.1584   -1.1456 O.2     1  UNL1       -0.2653
     17 N           0.5863    1.6852   -1.5617 N.ar    1  UNL1       -0.2892
     18 C           1.0092    2.4650   -2.7179 C.3     1  UNL1        0.0172
     19 H           1.5427   -3.5017   -2.4973 H       1  UNL1        0.0238
     20 H           0.5233   -2.0798   -2.2603 H       1  UNL1        0.0238
     21 H           1.5584   -2.2068   -3.6988 H       1  UNL1        0.0238
     22 H           3.5925   -2.1492   -2.2634 H       1  UNL1        0.0378
     23 H           2.6163   -2.0251   -0.8086 H       1  UNL1        0.0378
     24 H          -2.5645    2.2113    1.1335 H       1  UNL1        0.1661
     25 H          -3.5158    0.7896    3.3997 H       1  UNL1        0.0638
     26 H          -3.0057   -1.2208    4.7732 H       1  UNL1        0.0618
     27 H          -1.0890   -2.6760    4.2190 H       1  UNL1        0.0618
     28 H           0.3676   -2.1570    2.2687 H       1  UNL1        0.0625
     29 H           0.9784    1.8325   -3.6104 H       1  UNL1        0.0457
     30 H           2.0325    2.8197   -2.5588 H       1  UNL1        0.0457
     31 H           0.3698    3.3340   -2.8940 H       1  UNL1        0.0457
@<TRIPOS>BOND
     1     1     2    1
     2     2     3    1
     3     3     4    1
     4     4     5   ar
     5     5     6   ar
     6     6     7   ar
     7     7     8   ar
     8     8     9   ar
     9     9    10   ar
    10    10    11   ar
    11    11    12   ar
    12    12    13   ar
    13    13    14   ar
    14     7    15   ar
    15    15    16    2
    16    15    17   ar
    17    17    18    1
    18    17     4   ar
    19    14     6   ar
    20    14     9   ar
    21     1    19    1
    22     1    20    1
    23     1    21    1
    24     2    22    1
    25     2    23    1
    26     8    24    1
    27    10    25    1
    28    11    26    1
    29    12    27    1
    30    13    28    1
    31    18    29    1
    32    18    30    1
    33    18    31    1
