@<TRIPOS>MOLECULE
*****
 36 38 0 0 0
SMALL
GASTEIGER

@<TRIPOS>ATOM
      1 C           5.0672   -0.0437    0.4677 C.3     1  UNL1       -0.0558
      2 C           4.7148   -1.0120   -0.6490 C.3     1  UNL1       -0.0016
      3 S           3.9969   -0.1582   -2.0890 S.3     1  UNL1       -0.0846
      4 C           2.4024    0.2789   -1.4473 C.ar    1  UNL1        0.2124
      5 N           1.8329    1.4029   -1.9167 N.ar    1  UNL1       -0.1216
      6 N           0.5981    1.7766   -1.4533 N.ar    1  UNL1       -0.1413
      7 C          -0.0471    1.0172   -0.5374 C.ar    1  UNL1        0.1564
      8 C           0.5912   -0.1397   -0.1265 C.ar    1  UNL1        0.2477
      9 N           1.8156   -0.5276   -0.5563 N.ar    1  UNL1       -0.1837
     10 O           0.0710   -1.0057    0.7810 O.3     1  UNL1       -0.4509
     11 C          -1.2057   -1.5273    0.4266 C.3     1  UNL1        0.1722
     12 C          -1.3587   -1.9878   -1.0345 C.3     1  UNL1       -0.0077
     13 C          -1.3492   -2.7802    1.3152 C.3     1  UNL1       -0.0077
     14 N          -2.2772   -0.6274    0.8108 N.pl3   1  UNL1       -0.3069
     15 C          -2.3684    0.7239    0.4993 C.ar    1  UNL1        0.0394
     16 C          -3.5669    1.3531    0.9166 C.ar    1  UNL1       -0.0401
     17 C          -3.8049    2.7137    0.7349 C.ar    1  UNL1       -0.0600
     18 C          -2.8324    3.4954    0.1433 C.ar    1  UNL1       -0.0610
     19 C          -1.6309    2.9073   -0.2505 C.ar    1  UNL1       -0.0506
     20 C          -1.3566    1.5220   -0.0789 C.ar    1  UNL1        0.0283
     21 H           4.1813    0.4530    0.8755 H       1  UNL1        0.0238
     22 H           5.5462   -0.5858    1.2900 H       1  UNL1        0.0238
     23 H           5.7696    0.7239    0.1255 H       1  UNL1        0.0238
     24 H           4.0456   -1.7998   -0.2894 H       1  UNL1        0.0378
     25 H           5.6302   -1.5067   -0.9906 H       1  UNL1        0.0378
     26 H          -0.5328   -2.6471   -1.3248 H       1  UNL1        0.0285
     27 H          -1.3620   -1.1506   -1.7401 H       1  UNL1        0.0285
     28 H          -2.3020   -2.5258   -1.1840 H       1  UNL1        0.0285
     29 H          -2.3143   -3.2786    1.1704 H       1  UNL1        0.0285
     30 H          -0.5504   -3.5012    1.1053 H       1  UNL1        0.0285
     31 H          -1.2628   -2.5177    2.3769 H       1  UNL1        0.0285
     32 H          -3.1825   -1.0855    0.8627 H       1  UNL1        0.1498
     33 H          -4.3414    0.7661    1.4079 H       1  UNL1        0.0636
     34 H          -4.7414    3.1547    1.0642 H       1  UNL1        0.0618
     35 H          -2.9940    4.5596   -0.0058 H       1  UNL1        0.0618
     36 H          -0.8812    3.5603   -0.6996 H       1  UNL1        0.0625
@<TRIPOS>BOND
     1     1     2    1
     2     2     3    1
     3     3     4    1
     4     4     5   ar
     5     5     6   ar
     6     6     7   ar
     7     7     8   ar
     8     8     9   ar
     9     8    10    1
    10    10    11    1
    11    11    12    1
    12    11    13    1
    13    11    14    1
    14    14    15    1
    15    15    16   ar
    16    16    17   ar
    17    17    18   ar
    18    18    19   ar
    19    19    20   ar
    20     9     4   ar
    21    20    15   ar
    22    20     7    1
    23     1    21    1
    24     1    22    1
    25     1    23    1
    26     2    24    1
    27     2    25    1
    28    12    26    1
    29    12    27    1
    30    12    28    1
    31    13    29    1
    32    13    30    1
    33    13    31    1
    34    14    32    1
    35    16    33    1
    36    17    34    1
    37    18    35    1
    38    19    36    1
