@<TRIPOS>MOLECULE
*****
 40 43 0 0 0
SMALL
GASTEIGER

@<TRIPOS>ATOM
      1 C           4.9083   -0.9980   -0.6325 C.3     1  UNL1       -0.0558
      2 C           4.4019   -1.8300    0.5337 C.3     1  UNL1       -0.0016
      3 S           4.1142   -0.8160    2.0192 S.3     1  UNL1       -0.0846
      4 C           2.6524    0.0703    1.5378 C.ar    1  UNL1        0.2124
      5 N           2.4710    1.2963    2.0796 N.ar    1  UNL1       -0.1216
      6 N           1.3589    2.0257    1.7551 N.ar    1  UNL1       -0.1413
      7 C           0.4554    1.4897    0.9101 C.ar    1  UNL1        0.1564
      8 C           0.6999    0.2266    0.4003 C.ar    1  UNL1        0.2477
      9 N           1.7972   -0.5062    0.6804 N.ar    1  UNL1       -0.1837
     10 O          -0.0941   -0.2870   -0.5882 O.3     1  UNL1       -0.4503
     11 C          -1.3900   -0.6938   -0.1354 C.3     1  UNL1        0.1778
     12 C          -2.1931   -1.0646   -1.3952 C.3     1  UNL1        0.0045
     13 C          -1.6643   -2.4392   -1.8052 C.3     1  UNL1       -0.0477
     14 C          -1.0697   -3.0593   -0.5421 C.3     1  UNL1       -0.0477
     15 C          -1.3247   -2.0534    0.5772 C.3     1  UNL1        0.0045
     16 N          -2.1473    0.2664    0.6737 N.pl3   1  UNL1       -0.3065
     17 C          -1.9870    1.6417    0.4436 C.ar    1  UNL1        0.0394
     18 C          -3.1167    2.4199    0.1445 C.ar    1  UNL1       -0.0401
     19 C          -3.0103    3.7980   -0.0483 C.ar    1  UNL1       -0.0600
     20 C          -1.7741    4.4219    0.0704 C.ar    1  UNL1       -0.0610
     21 C          -0.6438    3.6661    0.3804 C.ar    1  UNL1       -0.0506
     22 C          -0.7288    2.2725    0.5639 C.ar    1  UNL1        0.0283
     23 H           5.1214   -1.6494   -1.4867 H       1  UNL1        0.0238
     24 H           5.8360   -0.4745   -0.3777 H       1  UNL1        0.0238
     25 H           4.1713   -0.2585   -0.9608 H       1  UNL1        0.0238
     26 H           5.1624   -2.5739    0.7938 H       1  UNL1        0.0378
     27 H           3.4994   -2.3849    0.2589 H       1  UNL1        0.0378
     28 H          -2.0645   -0.3391   -2.2059 H       1  UNL1        0.0321
     29 H          -3.2663   -1.1420   -1.1794 H       1  UNL1        0.0321
     30 H          -2.4631   -3.0595   -2.2245 H       1  UNL1        0.0267
     31 H          -0.8890   -2.3405   -2.5736 H       1  UNL1        0.0267
     32 H          -1.5162   -4.0324   -0.3150 H       1  UNL1        0.0267
     33 H           0.0071   -3.2152   -0.6765 H       1  UNL1        0.0267
     34 H          -2.2794   -2.2864    1.0664 H       1  UNL1        0.0321
     35 H          -0.5407   -2.1093    1.3388 H       1  UNL1        0.0321
     36 H          -3.1293    0.0073    0.7256 H       1  UNL1        0.1498
     37 H          -4.0972    1.9584    0.0603 H       1  UNL1        0.0636
     38 H          -3.8954    4.3844   -0.2811 H       1  UNL1        0.0618
     39 H          -1.6877    5.4966   -0.0685 H       1  UNL1        0.0618
     40 H           0.3158    4.1711    0.4831 H       1  UNL1        0.0625
@<TRIPOS>BOND
     1     1     2    1
     2     2     3    1
     3     3     4    1
     4     4     5   ar
     5     5     6   ar
     6     6     7   ar
     7     7     8   ar
     8     8     9   ar
     9     8    10    1
    10    10    11    1
    11    11    12    1
    12    12    13    1
    13    13    14    1
    14    14    15    1
    15    11    16    1
    16    16    17    1
    17    17    18   ar
    18    18    19   ar
    19    19    20   ar
    20    20    21   ar
    21    21    22   ar
    22     9     4   ar
    23    15    11    1
    24    22    17   ar
    25    22     7    1
    26     1    23    1
    27     1    24    1
    28     1    25    1
    29     2    26    1
    30     2    27    1
    31    12    28    1
    32    12    29    1
    33    13    30    1
    34    13    31    1
    35    14    32    1
    36    14    33    1
    37    15    34    1
    38    15    35    1
    39    16    36    1
    40    18    37    1
    41    19    38    1
    42    20    39    1
    43    21    40    1
