@<TRIPOS>MOLECULE
*****
 41 42 0 0 0
SMALL
GASTEIGER

@<TRIPOS>ATOM
      1 C          -6.4196   -0.5280   -0.1002 C.3     1  UNL1       -0.0562
      2 C          -5.5752   -1.5656   -0.8184 C.3     1  UNL1       -0.0087
      3 S          -4.7990   -0.9044   -2.3304 S.3     1  UNL1       -0.1532
      4 C          -3.6157    0.2913   -1.6249 C.3     1  UNL1        0.0538
      5 C          -2.6650   -0.3053   -0.6457 C.ar    1  UNL1        0.1437
      6 N          -1.9685   -1.4173   -0.8022 N.ar    1  UNL1       -0.1327
      7 N          -1.2222   -1.6247    0.3293 N.ar    1  UNL1       -0.1225
      8 C          -1.4688   -0.6339    1.1509 C.ar    1  UNL1        0.1918
      9 S          -0.7499   -0.4300    2.7081 S.3     1  UNL1       -0.0780
     10 C           0.9999   -0.4670    2.2062 C.3     1  UNL1        0.0642
     11 C           1.3793    0.7534    1.3770 C.2     1  UNL1        0.1733
     12 O           0.6756    1.7624    1.2953 O.2     1  UNL1       -0.2912
     13 C           2.6914    0.7389    0.6553 C.ar    1  UNL1        0.0185
     14 C           3.0130    1.8296   -0.1620 C.ar    1  UNL1       -0.0478
     15 C           4.2257    1.8608   -0.8553 C.ar    1  UNL1       -0.0193
     16 C           5.1326    0.8059   -0.7497 C.ar    1  UNL1        0.1201
     17 O           6.2782    0.9598   -1.4792 O.3     1  UNL1       -0.4951
     18 C           7.1461   -0.1638   -1.5568 C.3     1  UNL1        0.0788
     19 C           4.8212   -0.2791    0.0693 C.ar    1  UNL1       -0.0193
     20 C           3.6084   -0.3133    0.7716 C.ar    1  UNL1       -0.0478
     21 N          -2.3449    0.2428    0.5789 N.ar    1  UNL1       -0.3084
     22 C          -2.8138    1.4971    1.1098 C.3     1  UNL1        0.0154
     23 H          -5.8137    0.2913    0.2965 H       1  UNL1        0.0238
     24 H          -6.9326   -0.9928    0.7488 H       1  UNL1        0.0238
     25 H          -7.1871   -0.1077   -0.7589 H       1  UNL1        0.0238
     26 H          -4.8183   -1.9841   -0.1489 H       1  UNL1        0.0374
     27 H          -6.2186   -2.3968   -1.1258 H       1  UNL1        0.0374
     28 H          -3.0390    0.7080   -2.4588 H       1  UNL1        0.0456
     29 H          -4.1910    1.1169   -1.1984 H       1  UNL1        0.0456
     30 H           1.1785   -1.3869    1.6425 H       1  UNL1        0.0462
     31 H           1.6112   -0.4723    3.1145 H       1  UNL1        0.0462
     32 H           2.3231    2.6645   -0.2679 H       1  UNL1        0.0626
     33 H           4.4616    2.7139   -1.4872 H       1  UNL1        0.0654
     34 H           6.6269   -1.0398   -1.9584 H       1  UNL1        0.0660
     35 H           7.9564    0.0873   -2.2476 H       1  UNL1        0.0660
     36 H           7.5937   -0.3823   -0.5813 H       1  UNL1        0.0660
     37 H           5.5030   -1.1155    0.1876 H       1  UNL1        0.0654
     38 H           3.4151   -1.1774    1.4001 H       1  UNL1        0.0626
     39 H          -2.1120    1.8927    1.8475 H       1  UNL1        0.0457
     40 H          -3.7897    1.3295    1.5700 H       1  UNL1        0.0457
     41 H          -2.8961    2.2239    0.2988 H       1  UNL1        0.0457
@<TRIPOS>BOND
     1     1     2    1
     2     2     3    1
     3     3     4    1
     4     4     5    1
     5     5     6   ar
     6     6     7   ar
     7     7     8   ar
     8     8     9    1
     9     9    10    1
    10    10    11    1
    11    11    12    2
    12    11    13    1
    13    13    14   ar
    14    14    15   ar
    15    15    16   ar
    16    16    17    1
    17    17    18    1
    18    16    19   ar
    19    19    20   ar
    20     8    21   ar
    21    21    22    1
    22    21     5   ar
    23    20    13   ar
    24     1    23    1
    25     1    24    1
    26     1    25    1
    27     2    26    1
    28     2    27    1
    29     4    28    1
    30     4    29    1
    31    10    30    1
    32    10    31    1
    33    14    32    1
    34    15    33    1
    35    18    34    1
    36    18    35    1
    37    18    36    1
    38    19    37    1
    39    20    38    1
    40    22    39    1
    41    22    40    1
    42    22    41    1
