@<TRIPOS>MOLECULE
*****
 35 38 0 0 0
SMALL
GASTEIGER

@<TRIPOS>ATOM
      1 CL         -1.0651   -5.0001   -0.0297 Cl      1  UNL1       -0.0835
      2 C          -1.1766   -3.2844    0.0277 C.ar    1  UNL1        0.0410
      3 C          -1.4365   -2.5690   -1.1398 C.ar    1  UNL1       -0.0428
      4 C          -1.5175   -1.1751   -1.0956 C.ar    1  UNL1       -0.0512
      5 C          -1.0098   -2.6205    1.2413 C.ar    1  UNL1       -0.0428
      6 C          -1.0924   -1.2267    1.2869 C.ar    1  UNL1       -0.0512
      7 C          -1.3285   -0.4939    0.1155 C.ar    1  UNL1       -0.0010
      8 C          -1.4135    0.9729    0.1653 C.ar    1  UNL1        0.0557
      9 C          -2.6509    1.5170    0.1515 C.ar    1  UNL1       -0.0371
     10 C          -2.8133    2.9573    0.2304 C.ar    1  UNL1       -0.0578
     11 C          -1.7544    3.7773    0.3416 C.ar    1  UNL1       -0.0362
     12 C          -0.4476    3.2238    0.3728 C.ar    1  UNL1        0.0666
     13 C           0.8169    3.7374    0.5061 C.ar    1  UNL1        0.0538
     14 N           1.7493    2.7422    0.4671 N.ar    1  UNL1       -0.2349
     15 C           1.0836    1.6118    0.2862 C.ar    1  UNL1        0.1456
     16 C           1.7427    0.3164    0.1405 C.ar    1  UNL1        0.0178
     17 C           2.3378   -0.2933    1.2520 C.ar    1  UNL1       -0.0511
     18 C           2.9704   -1.5311    1.1228 C.ar    1  UNL1       -0.0611
     19 C           3.0266   -2.1586   -0.1210 C.ar    1  UNL1       -0.0617
     20 C           2.4639   -1.5440   -1.2388 C.ar    1  UNL1       -0.0611
     21 C           1.8313   -0.3057   -1.1110 C.ar    1  UNL1       -0.0511
     22 N          -0.2964    1.8383    0.2633 N.ar    1  UNL1       -0.2922
     23 H          -1.5706   -3.0878   -2.0850 H       1  UNL1        0.0632
     24 H          -1.7140   -0.6240   -2.0128 H       1  UNL1        0.0625
     25 H          -0.8091   -3.1783    2.1518 H       1  UNL1        0.0632
     26 H          -0.9569   -0.7169    2.2384 H       1  UNL1        0.0625
     27 H          -3.5524    0.9131    0.0947 H       1  UNL1        0.0638
     28 H          -3.8232    3.3559    0.2054 H       1  UNL1        0.0619
     29 H          -1.8854    4.8530    0.4076 H       1  UNL1        0.0639
     30 H           1.1064    4.7729    0.6285 H       1  UNL1        0.0851
     31 H           2.3106    0.1984    2.2217 H       1  UNL1        0.0625
     32 H           3.4247   -2.0016    1.9907 H       1  UNL1        0.0618
     33 H           3.5198   -3.1220   -0.2215 H       1  UNL1        0.0618
     34 H           2.5216   -2.0266   -2.2108 H       1  UNL1        0.0618
     35 H           1.4085    0.1718   -1.9913 H       1  UNL1        0.0625
@<TRIPOS>BOND
     1     1     2    1
     2     2     3   ar
     3     3     4   ar
     4     2     5   ar
     5     5     6   ar
     6     6     7   ar
     7     7     8    1
     8     8     9   ar
     9     9    10   ar
    10    10    11   ar
    11    11    12   ar
    12    12    13   ar
    13    13    14   ar
    14    14    15   ar
    15    15    16    1
    16    16    17   ar
    17    17    18   ar
    18    18    19   ar
    19    19    20   ar
    20    20    21   ar
    21    15    22   ar
    22     7     4   ar
    23    22     8   ar
    24    22    12   ar
    25    21    16   ar
    26     3    23    1
    27     4    24    1
    28     5    25    1
    29     6    26    1
    30     9    27    1
    31    10    28    1
    32    11    29    1
    33    13    30    1
    34    17    31    1
    35    18    32    1
    36    19    33    1
    37    20    34    1
    38    21    35    1
