@<TRIPOS>MOLECULE
*****
 41 47 0 0 0
SMALL
GASTEIGER

@<TRIPOS>ATOM
      1 SI          5.9444   -0.6847   -0.5463 Si      1  UNL1        0.0000
      2 C           6.4473    0.0661    1.1847 C.2     1  UNL1        0.0000
      3 C           5.3692    0.4670    1.8958 C.2     1  UNL1        0.0000
      4 C           4.1865    0.2195    1.1648 C.ar    1  UNL1        0.0000
      5 N           2.8998    0.4847    1.5403 N.ar    1  UNL1        0.0000
      6 C           2.0345    0.0823    0.5200 C.ar    1  UNL1        0.0000
      7 C           2.8741   -0.4303   -0.4749 C.ar    1  UNL1        0.0000
      8 C           4.1834   -0.3503   -0.0887 C.ar    1  UNL1        0.0000
      9 C           2.2574   -0.9177   -1.6507 C.ar    1  UNL1        0.0000
     10 C           2.7762   -1.4663   -2.7797 C.ar    1  UNL1        0.0000
     11 O           1.7247   -1.7654   -3.6110 O.2     1  UNL1        0.0000
     12 C           0.5700   -1.3884   -2.9675 C.ar    1  UNL1        0.0000
     13 C           0.8587   -0.8524   -1.7327 C.ar    1  UNL1        0.0000
     14 C          -0.0521   -0.3530   -0.7739 C.ar    1  UNL1        0.0000
     15 C          -1.4617   -0.3001   -0.8823 C.ar    1  UNL1        0.0000
     16 C          -2.2428    0.2289    0.1589 C.ar    1  UNL1        0.0000
     17 C          -1.5828    0.7007    1.3091 C.ar    1  UNL1        0.0000
     18 C          -0.1867    0.6578    1.4342 C.ar    1  UNL1        0.0000
     19 C           0.6019    0.1312    0.3995 C.ar    1  UNL1        0.0000
     20 C          -3.7059    0.2639    0.0509 C.ar    1  UNL1        0.0000
     21 C          -4.4762   -0.8793   -0.2857 C.ar    1  UNL1        0.0000
     22 C          -5.8868   -0.8810   -0.4030 C.ar    1  UNL1        0.0000
     23 C          -6.6707    0.2635   -0.1970 C.ar    1  UNL1        0.0000
     24 C          -5.9712    1.4454    0.1412 C.ar    1  UNL1        0.0000
     25 N          -6.5364    2.6397    0.3757 N.ar    1  UNL1        0.0000
     26 S          -5.2962    3.6873    0.7147 S.2     1  UNL1        0.0000
     27 N          -3.9899    2.6752    0.5923 N.ar    1  UNL1        0.0000
     28 C          -4.4624    1.4565    0.2706 C.ar    1  UNL1        0.0000
     29 H           6.3214   -2.1195   -0.6060 H       1  UNL1        0.0000
     30 H           6.4858    0.1581   -1.6421 H       1  UNL1        0.0000
     31 H           7.4877    0.1175    1.4610 H       1  UNL1        0.0000
     32 H           5.4058    0.9130    2.8810 H       1  UNL1        0.0000
     33 H           2.6104    0.9054    2.4112 H       1  UNL1        0.0000
     34 H           3.7585   -1.7080   -3.1558 H       1  UNL1        0.0000
     35 H          -0.3385   -1.5708   -3.5233 H       1  UNL1        0.0000
     36 H          -1.9426   -0.6622   -1.7874 H       1  UNL1        0.0000
     37 H          -2.1616    1.1142    2.1343 H       1  UNL1        0.0000
     38 H           0.2603    1.0415    2.3461 H       1  UNL1        0.0000
     39 H          -3.9576   -1.8254   -0.4548 H       1  UNL1        0.0000
     40 H          -6.3858   -1.8152   -0.6629 H       1  UNL1        0.0000
     41 H          -7.7500    0.2508   -0.2897 H       1  UNL1        0.0000
@<TRIPOS>BOND
     1     1     2    1
     2     2     3    2
     3     3     4    1
     4     4     5   ar
     5     5     6   ar
     6     6     7   ar
     7     7     8   ar
     8     7     9   ar
     9     9    10   ar
    10    10    11   ar
    11    11    12   ar
    12    12    13   ar
    13    13    14   ar
    14    14    15   ar
    15    15    16   ar
    16    16    17   ar
    17    17    18   ar
    18    18    19   ar
    19    16    20    1
    20    20    21   ar
    21    21    22   ar
    22    22    23   ar
    23    23    24   ar
    24    24    25   ar
    25    25    26   ar
    26    26    27   ar
    27    27    28   ar
    28     8     1    1
    29    13     9   ar
    30    19    14   ar
    31    28    20   ar
    32     8     4   ar
    33    28    24   ar
    34    19     6   ar
    35     1    29    1
    36     1    30    1
    37     2    31    1
    38     3    32    1
    39     5    33    1
    40    10    34    1
    41    12    35    1
    42    15    36    1
    43    17    37    1
    44    18    38    1
    45    21    39    1
    46    22    40    1
    47    23    41    1
