@<TRIPOS>MOLECULE
*****
 23 25 0 0 0
SMALL
GASTEIGER

@<TRIPOS>ATOM
      1 CL          5.1214    1.1191    0.2549 Cl      1  UNL1       -0.0835
      2 C           3.4715    0.6475    0.1376 C.ar    1  UNL1        0.0410
      3 C           2.5901    1.3958   -0.6383 C.ar    1  UNL1       -0.0428
      4 C           1.2495    1.0110   -0.7345 C.ar    1  UNL1       -0.0512
      5 C           3.0238   -0.4808    0.8207 C.ar    1  UNL1       -0.0428
      6 C           1.6831   -0.8656    0.7248 C.ar    1  UNL1       -0.0512
      7 C           0.7821   -0.1249   -0.0568 C.ar    1  UNL1        0.0007
      8 C          -0.6316   -0.5323   -0.1676 C.ar    1  UNL1        0.0777
      9 C          -0.9289   -1.7609   -0.6320 C.ar    1  UNL1       -0.0173
     10 C          -2.3759   -2.0896   -0.7266 C.ar    1  UNL1        0.0335
     11 N          -3.3652   -1.3144   -0.4119 N.ar    1  UNL1       -0.2190
     12 C          -3.0264   -0.0747    0.0504 C.ar    1  UNL1        0.2533
     13 N          -3.8120    0.9064    0.4373 N.ar    1  UNL1       -0.1974
     14 C          -2.9432    1.8885    0.7917 C.ar    1  UNL1        0.1406
     15 N          -1.6502    1.6033    0.6530 N.ar    1  UNL1       -0.1518
     16 N          -1.6863    0.3306    0.1762 N.ar    1  UNL1       -0.1963
     17 H           2.9350    2.2811   -1.1662 H       1  UNL1        0.0632
     18 H           0.5733    1.6136   -1.3388 H       1  UNL1        0.0625
     19 H           3.7096   -1.0607    1.4329 H       1  UNL1        0.0632
     20 H           1.3497   -1.7412    1.2781 H       1  UNL1        0.0625
     21 H          -0.2058   -2.5027   -0.9437 H       1  UNL1        0.0654
     22 H          -2.5979   -3.1014   -1.1063 H       1  UNL1        0.0831
     23 H          -3.2656    2.8524    1.1653 H       1  UNL1        0.1066
@<TRIPOS>BOND
     1     1     2    1
     2     2     3   ar
     3     3     4   ar
     4     2     5   ar
     5     5     6   ar
     6     6     7   ar
     7     7     8    1
     8     8     9   ar
     9     9    10   ar
    10    10    11   ar
    11    11    12   ar
    12    12    13   ar
    13    13    14   ar
    14    14    15   ar
    15    15    16   ar
    16     7     4   ar
    17    16     8   ar
    18    16    12   ar
    19     3    17    1
    20     4    18    1
    21     5    19    1
    22     6    20    1
    23     9    21    1
    24    10    22    1
    25    14    23    1
