@<TRIPOS>MOLECULE
*****
 29 31 0 0 0
SMALL
GASTEIGER

@<TRIPOS>ATOM
      1 CL         -6.7619    0.8474   -1.6815 Cl      1  UNL1       -0.0835
      2 C          -5.1812    0.3911   -1.1812 C.ar    1  UNL1        0.0410
      3 C          -4.1221    1.2806   -1.3317 C.ar    1  UNL1       -0.0428
      4 C          -2.8378    0.9058   -0.9235 C.ar    1  UNL1       -0.0511
      5 C          -4.9663   -0.8680   -0.6267 C.ar    1  UNL1       -0.0428
      6 C          -3.6803   -1.2423   -0.2184 C.ar    1  UNL1       -0.0511
      7 C          -2.5979   -0.3597   -0.3614 C.ar    1  UNL1        0.0037
      8 C          -1.2476   -0.7372    0.0610 C.ar    1  UNL1        0.1130
      9 N          -0.1950    0.0878   -0.0645 N.ar    1  UNL1       -0.1471
     10 N           0.8347   -0.6410    0.4367 N.ar    1  UNL1       -0.1497
     11 C           2.1597   -0.1315    0.4937 C.ar    1  UNL1        0.0862
     12 C           3.1945   -0.9190    1.0198 C.ar    1  UNL1       -0.0333
     13 C           4.4980   -0.4151    1.0748 C.ar    1  UNL1       -0.0423
     14 C           4.7753    0.8739    0.6063 C.ar    1  UNL1        0.0519
     15 C           6.1126    1.3881    0.6638 C.1     1  UNL1        0.0992
     16 N           7.1949    1.8045    0.7103 N.1     1  UNL1       -0.1909
     17 C           3.7431    1.6597    0.0814 C.ar    1  UNL1       -0.0423
     18 C           2.4378    1.1607    0.0241 C.ar    1  UNL1       -0.0333
     19 N           0.5220   -1.8848    0.8798 N.ar    1  UNL1       -0.1549
     20 C          -0.7888   -1.9401    0.6411 C.ar    1  UNL1        0.0776
     21 H          -4.2836    2.2647   -1.7637 H       1  UNL1        0.0632
     22 H          -2.0213    1.6154   -1.0492 H       1  UNL1        0.0625
     23 H          -5.7933   -1.5638   -0.5087 H       1  UNL1        0.0632
     24 H          -3.5503   -2.2327    0.2100 H       1  UNL1        0.0625
     25 H           3.0014   -1.9249    1.3900 H       1  UNL1        0.0640
     26 H           5.2924   -1.0364    1.4855 H       1  UNL1        0.0631
     27 H           3.9462    2.6643   -0.2863 H       1  UNL1        0.0631
     28 H           1.6502    1.7896   -0.3884 H       1  UNL1        0.0640
     29 H          -1.3353   -2.8369    0.8966 H       1  UNL1        0.0870
@<TRIPOS>BOND
     1     1     2    1
     2     2     3   ar
     3     3     4   ar
     4     2     5   ar
     5     5     6   ar
     6     6     7   ar
     7     7     8    1
     8     8     9   ar
     9     9    10   ar
    10    10    11    1
    11    11    12   ar
    12    12    13   ar
    13    13    14   ar
    14    14    15    1
    15    15    16    3
    16    14    17   ar
    17    17    18   ar
    18    10    19   ar
    19    19    20   ar
    20     7     4   ar
    21    20     8   ar
    22    18    11   ar
    23     3    21    1
    24     4    22    1
    25     5    23    1
    26     6    24    1
    27    12    25    1
    28    13    26    1
    29    17    27    1
    30    18    28    1
    31    20    29    1
