@<TRIPOS>MOLECULE
*****
 28 30 0 0 0
SMALL
GASTEIGER

@<TRIPOS>ATOM
      1 CL         -6.4397   -1.9029    0.9733 Cl      1  UNL1       -0.0835
      2 C          -4.8966   -1.1880    0.7182 C.ar    1  UNL1        0.0410
      3 C          -3.7635   -1.9916    0.6432 C.ar    1  UNL1       -0.0428
      4 C          -2.5101   -1.4063    0.4356 C.ar    1  UNL1       -0.0511
      5 C          -4.7863    0.1940    0.5874 C.ar    1  UNL1       -0.0428
      6 C          -3.5313    0.7790    0.3795 C.ar    1  UNL1       -0.0511
      7 C          -2.3754   -0.0139    0.3008 C.ar    1  UNL1        0.0037
      8 C          -1.0563    0.5836    0.0839 C.ar    1  UNL1        0.1130
      9 N           0.0648   -0.1519    0.0047 N.ar    1  UNL1       -0.1471
     10 N           1.0347    0.7768   -0.1962 N.ar    1  UNL1       -0.1497
     11 C           2.4020    0.4187   -0.3384 C.ar    1  UNL1        0.0862
     12 C           2.7872   -0.9292   -0.2730 C.ar    1  UNL1       -0.0332
     13 C           4.1336   -1.2780   -0.4133 C.ar    1  UNL1       -0.0413
     14 C           5.0910   -0.2852   -0.6181 C.ar    1  UNL1        0.0411
     15 CL          6.7470   -0.7189   -0.7903 Cl      1  UNL1       -0.0835
     16 C           4.7165    1.0562   -0.6843 C.ar    1  UNL1       -0.0413
     17 C           3.3719    1.4119   -0.5448 C.ar    1  UNL1       -0.0332
     18 N           0.6182    2.0674   -0.2529 N.ar    1  UNL1       -0.1549
     19 C          -0.6973    1.9398   -0.0761 C.ar    1  UNL1        0.0776
     20 H          -3.8430   -3.0708    0.7446 H       1  UNL1        0.0632
     21 H          -1.6344   -2.0513    0.3797 H       1  UNL1        0.0625
     22 H          -5.6712    0.8229    0.6458 H       1  UNL1        0.0632
     23 H          -3.4834    1.8604    0.2820 H       1  UNL1        0.0625
     24 H           2.0525   -1.7166   -0.1137 H       1  UNL1        0.0640
     25 H           4.4271   -2.3234   -0.3619 H       1  UNL1        0.0633
     26 H           5.4639    1.8292   -0.8440 H       1  UNL1        0.0633
     27 H           3.0963    2.4638   -0.5990 H       1  UNL1        0.0640
     28 H          -1.3182    2.8243   -0.0726 H       1  UNL1        0.0870
@<TRIPOS>BOND
     1     1     2    1
     2     2     3   ar
     3     3     4   ar
     4     2     5   ar
     5     5     6   ar
     6     6     7   ar
     7     7     8    1
     8     8     9   ar
     9     9    10   ar
    10    10    11    1
    11    11    12   ar
    12    12    13   ar
    13    13    14   ar
    14    14    15    1
    15    14    16   ar
    16    16    17   ar
    17    10    18   ar
    18    18    19   ar
    19     7     4   ar
    20    19     8   ar
    21    17    11   ar
    22     3    20    1
    23     4    21    1
    24     5    22    1
    25     6    23    1
    26    12    24    1
    27    13    25    1
    28    16    26    1
    29    17    27    1
    30    19    28    1
