@<TRIPOS>MOLECULE
*****
 28 30 0 0 0
SMALL
GASTEIGER

@<TRIPOS>ATOM
      1 CL         -6.5785   -1.1732   -1.1098 Cl      1  UNL1       -0.0835
      2 C          -4.9837   -0.6785   -0.6982 C.ar    1  UNL1        0.0410
      3 C          -4.7906    0.4588    0.0819 C.ar    1  UNL1       -0.0428
      4 C          -3.4933    0.8640    0.4186 C.ar    1  UNL1       -0.0511
      5 C          -3.8916   -1.4153   -1.1453 C.ar    1  UNL1       -0.0428
      6 C          -2.5961   -1.0097   -0.8084 C.ar    1  UNL1       -0.0511
      7 C          -2.3777    0.1346   -0.0224 C.ar    1  UNL1        0.0037
      8 C          -1.0152    0.5461    0.3217 C.ar    1  UNL1        0.1130
      9 N           0.0687   -0.1334   -0.0871 N.ar    1  UNL1       -0.1471
     10 N           1.0998    0.5743    0.4419 N.ar    1  UNL1       -0.1497
     11 C           2.4540    0.1917    0.2472 C.ar    1  UNL1        0.0863
     12 C           3.4889    0.9541    0.8135 C.ar    1  UNL1       -0.0318
     13 C           4.8189    0.5742    0.6196 C.ar    1  UNL1       -0.0244
     14 C           5.1083   -0.5581   -0.1342 C.ar    1  UNL1        0.1235
     15 F           6.3849   -0.9188   -0.3177 F       1  UNL1       -0.2055
     16 C           4.0935   -1.3221   -0.7006 C.ar    1  UNL1       -0.0244
     17 C           2.7606   -0.9498   -0.5119 C.ar    1  UNL1       -0.0318
     18 N           0.7574    1.6691    1.1677 N.ar    1  UNL1       -0.1549
     19 C          -0.5734    1.6463    1.0886 C.ar    1  UNL1        0.0776
     20 H          -5.6433    1.0353    0.4318 H       1  UNL1        0.0632
     21 H          -3.3808    1.7563    1.0288 H       1  UNL1        0.0625
     22 H          -4.0358   -2.3038   -1.7544 H       1  UNL1        0.0632
     23 H          -1.7534   -1.5990   -1.1675 H       1  UNL1        0.0625
     24 H           3.2742    1.8422    1.4053 H       1  UNL1        0.0640
     25 H           5.6291    1.1537    1.0511 H       1  UNL1        0.0647
     26 H           4.3458   -2.2016   -1.2848 H       1  UNL1        0.0647
     27 H           1.9747   -1.5552   -0.9599 H       1  UNL1        0.0640
     28 H          -1.1454    2.4178    1.5843 H       1  UNL1        0.0870
@<TRIPOS>BOND
     1     1     2    1
     2     2     3   ar
     3     3     4   ar
     4     2     5   ar
     5     5     6   ar
     6     6     7   ar
     7     7     8    1
     8     8     9   ar
     9     9    10   ar
    10    10    11    1
    11    11    12   ar
    12    12    13   ar
    13    13    14   ar
    14    14    15    1
    15    14    16   ar
    16    16    17   ar
    17    10    18   ar
    18    18    19   ar
    19     7     4   ar
    20    19     8   ar
    21    17    11   ar
    22     3    20    1
    23     4    21    1
    24     5    22    1
    25     6    23    1
    26    12    24    1
    27    13    25    1
    28    16    26    1
    29    17    27    1
    30    19    28    1
