@<TRIPOS>MOLECULE
*****
 32 34 0 0 0
SMALL
GASTEIGER

@<TRIPOS>ATOM
      1 CL          7.0798    2.6318    0.3739 Cl      1  UNL1       -0.0835
      2 C           5.6269    1.7124    0.3408 C.ar    1  UNL1        0.0410
      3 C           4.4069    2.3501    0.1396 C.ar    1  UNL1       -0.0428
      4 C           3.2273    1.5989    0.1134 C.ar    1  UNL1       -0.0511
      5 C           5.6763    0.3317    0.5155 C.ar    1  UNL1       -0.0428
      6 C           4.4949   -0.4194    0.4891 C.ar    1  UNL1       -0.0511
      7 C           3.2535    0.2046    0.2875 C.ar    1  UNL1        0.0037
      8 C           2.0098   -0.5677    0.2573 C.ar    1  UNL1        0.1130
      9 N           0.8099    0.0046    0.0663 N.ar    1  UNL1       -0.1471
     10 N          -0.0493   -1.0473    0.1092 N.ar    1  UNL1       -0.1497
     11 C          -1.4500   -0.8818   -0.0521 C.ar    1  UNL1        0.0864
     12 C          -1.9896    0.3946   -0.2633 C.ar    1  UNL1       -0.0311
     13 C          -3.3714    0.5581   -0.4224 C.ar    1  UNL1       -0.0179
     14 C          -4.2210   -0.5480   -0.3718 C.ar    1  UNL1        0.1202
     15 O          -5.5813   -0.5247   -0.5115 O.3     1  UNL1       -0.4951
     16 C          -6.1842    0.7448   -0.7282 C.3     1  UNL1        0.0788
     17 C          -3.6786   -1.8189   -0.1610 C.ar    1  UNL1       -0.0179
     18 C          -2.3010   -1.9923   -0.0011 C.ar    1  UNL1       -0.0311
     19 N           0.5152   -2.2650    0.3157 N.ar    1  UNL1       -0.1549
     20 C           1.8090   -1.9570    0.4079 C.ar    1  UNL1        0.0776
     21 H           4.3617    3.4273    0.0026 H       1  UNL1        0.0632
     22 H           2.2815    2.1150   -0.0452 H       1  UNL1        0.0625
     23 H           6.6291   -0.1676    0.6728 H       1  UNL1        0.0632
     24 H           4.5715   -1.4944    0.6290 H       1  UNL1        0.0625
     25 H          -1.3484    1.2731   -0.3068 H       1  UNL1        0.0640
     26 H          -3.7488    1.5625   -0.5838 H       1  UNL1        0.0655
     27 H          -7.2639    0.5910   -0.8179 H       1  UNL1        0.0660
     28 H          -6.0127    1.4136    0.1217 H       1  UNL1        0.0660
     29 H          -5.8332    1.1941   -1.6630 H       1  UNL1        0.0660
     30 H          -4.3367   -2.6840   -0.1208 H       1  UNL1        0.0655
     31 H          -1.9113   -2.9952    0.1614 H       1  UNL1        0.0640
     32 H           2.5286   -2.7453    0.5772 H       1  UNL1        0.0870
@<TRIPOS>BOND
     1     1     2    1
     2     2     3   ar
     3     3     4   ar
     4     2     5   ar
     5     5     6   ar
     6     6     7   ar
     7     7     8    1
     8     8     9   ar
     9     9    10   ar
    10    10    11    1
    11    11    12   ar
    12    12    13   ar
    13    13    14   ar
    14    14    15    1
    15    15    16    1
    16    14    17   ar
    17    17    18   ar
    18    10    19   ar
    19    19    20   ar
    20     7     4   ar
    21    20     8   ar
    22    18    11   ar
    23     3    21    1
    24     4    22    1
    25     5    23    1
    26     6    24    1
    27    12    25    1
    28    13    26    1
    29    16    27    1
    30    16    28    1
    31    16    29    1
    32    17    30    1
    33    18    31    1
    34    20    32    1
