@<TRIPOS>MOLECULE
*****
 28 30 0 0 0
SMALL
GASTEIGER

@<TRIPOS>ATOM
      1 CL          6.6223   -1.3068   -0.2802 Cl      1  UNL1       -0.0835
      2 C           5.0067   -0.7581   -0.0655 C.ar    1  UNL1        0.0410
      3 C           4.7692    0.4996    0.4833 C.ar    1  UNL1       -0.0428
      4 C           3.4549    0.9491    0.6594 C.ar    1  UNL1       -0.0511
      5 C           3.9421   -1.5715   -0.4403 C.ar    1  UNL1       -0.0428
      6 C           2.6295   -1.1216   -0.2639 C.ar    1  UNL1       -0.0511
      7 C           2.3665    0.1439    0.2879 C.ar    1  UNL1        0.0037
      8 C           0.9866    0.6003    0.4659 C.ar    1  UNL1        0.1130
      9 N          -0.0715   -0.1503    0.1188 N.ar    1  UNL1       -0.1471
     10 N          -1.1329    0.6331    0.4458 N.ar    1  UNL1       -0.1497
     11 C          -2.4726    0.2118    0.2388 C.ar    1  UNL1        0.0861
     12 C          -3.5375    1.0536    0.5914 C.ar    1  UNL1       -0.0345
     13 C          -4.8539    0.6353    0.3861 C.ar    1  UNL1       -0.0597
     14 C          -5.1114   -0.6182   -0.1690 C.ar    1  UNL1       -0.0616
     15 C          -4.0553   -1.4584   -0.5211 C.ar    1  UNL1       -0.0597
     16 C          -2.7359   -1.0479   -0.3191 C.ar    1  UNL1       -0.0345
     17 N          -0.8312    1.8442    0.9829 N.ar    1  UNL1       -0.1549
     18 C           0.5017    1.8169    0.9927 C.ar    1  UNL1        0.0776
     19 H           5.6004    1.1360    0.7766 H       1  UNL1        0.0632
     20 H           3.3073    1.9357    1.0906 H       1  UNL1        0.0625
     21 H           4.1208   -2.5540   -0.8691 H       1  UNL1        0.0632
     22 H           1.8086   -1.7718   -0.5631 H       1  UNL1        0.0625
     23 H          -3.3575    2.0352    1.0257 H       1  UNL1        0.0639
     24 H          -5.6790    1.2883    0.6597 H       1  UNL1        0.0618
     25 H          -6.1375   -0.9408   -0.3275 H       1  UNL1        0.0618
     26 H          -4.2590   -2.4349   -0.9535 H       1  UNL1        0.0618
     27 H          -1.9261   -1.7180   -0.6005 H       1  UNL1        0.0639
     28 H           1.0442    2.6692    1.3761 H       1  UNL1        0.0870
@<TRIPOS>BOND
     1     1     2    1
     2     2     3   ar
     3     3     4   ar
     4     2     5   ar
     5     5     6   ar
     6     6     7   ar
     7     7     8    1
     8     8     9   ar
     9     9    10   ar
    10    10    11    1
    11    11    12   ar
    12    12    13   ar
    13    13    14   ar
    14    14    15   ar
    15    15    16   ar
    16    10    17   ar
    17    17    18   ar
    18     7     4   ar
    19    18     8   ar
    20    16    11   ar
    21     3    19    1
    22     4    20    1
    23     5    21    1
    24     6    22    1
    25    12    23    1
    26    13    24    1
    27    14    25    1
    28    15    26    1
    29    16    27    1
    30    18    28    1
