@<TRIPOS>MOLECULE
*****
 23 25 0 0 0
SMALL
GASTEIGER

@<TRIPOS>ATOM
      1 CL         -5.9254   -0.4611   -0.4328 Cl      1  UNL1       -0.0835
      2 C          -4.2134   -0.3427   -0.3120 C.ar    1  UNL1        0.0410
      3 C          -3.6279    0.8636    0.0656 C.ar    1  UNL1       -0.0427
      4 C          -2.2358    0.9598    0.1637 C.ar    1  UNL1       -0.0496
      5 C          -3.4206   -1.4530   -0.5922 C.ar    1  UNL1       -0.0427
      6 C          -2.0289   -1.3553   -0.4935 C.ar    1  UNL1       -0.0496
      7 C          -1.4203   -0.1484   -0.1147 C.ar    1  UNL1        0.0210
      8 C           0.0350   -0.0572   -0.0147 C.ar    1  UNL1        0.1838
      9 N           0.6888    1.0586    0.3402 N.ar    1  UNL1       -0.1437
     10 N           1.9798    0.6692    0.2932 N.ar    1  UNL1       -0.2036
     11 C           3.1236    1.4103    0.5648 C.ar    1  UNL1        0.0344
     12 C           4.3307    0.8380    0.4608 C.ar    1  UNL1       -0.0252
     13 C           4.3161   -0.5943    0.0470 C.ar    1  UNL1        0.0329
     14 N           3.2659   -1.3115   -0.2131 N.ar    1  UNL1       -0.2190
     15 C           2.0629   -0.6728   -0.0897 C.ar    1  UNL1        0.2533
     16 N           0.8479   -1.1315   -0.2835 N.ar    1  UNL1       -0.1892
     17 H          -4.2440    1.7315    0.2847 H       1  UNL1        0.0632
     18 H          -1.7909    1.9081    0.4598 H       1  UNL1        0.0625
     19 H          -3.8737   -2.3957   -0.8870 H       1  UNL1        0.0632
     20 H          -1.4188   -2.2300   -0.7150 H       1  UNL1        0.0625
     21 H           2.9680    2.4407    0.8541 H       1  UNL1        0.0832
     22 H           5.2698    1.3366    0.6521 H       1  UNL1        0.0648
     23 H           5.3112   -1.0630   -0.0379 H       1  UNL1        0.0831
@<TRIPOS>BOND
     1     1     2    1
     2     2     3   ar
     3     3     4   ar
     4     2     5   ar
     5     5     6   ar
     6     6     7   ar
     7     7     8    1
     8     8     9   ar
     9     9    10   ar
    10    10    11   ar
    11    11    12   ar
    12    12    13   ar
    13    13    14   ar
    14    14    15   ar
    15    15    16   ar
    16     7     4   ar
    17    16     8   ar
    18    15    10   ar
    19     3    17    1
    20     4    18    1
    21     5    19    1
    22     6    20    1
    23    11    21    1
    24    12    22    1
    25    13    23    1
