@<TRIPOS>MOLECULE
*****
 32 34 0 0 0
SMALL
GASTEIGER

@<TRIPOS>ATOM
      1 CL          7.3850   -0.8840   -1.4655 Cl      1  UNL1       -0.0835
      2 C           5.8389   -0.4634   -0.8386 C.ar    1  UNL1        0.0411
      3 C           5.7459    0.4040    0.2491 C.ar    1  UNL1       -0.0413
      4 C           4.4913    0.7477    0.7608 C.ar    1  UNL1       -0.0332
      5 C           4.6885   -0.9925   -1.4223 C.ar    1  UNL1       -0.0413
      6 C           3.4308   -0.6528   -0.9156 C.ar    1  UNL1       -0.0332
      7 C           3.3285    0.2195    0.1790 C.ar    1  UNL1        0.0862
      8 N           2.0518    0.5668    0.6965 N.ar    1  UNL1       -0.1497
      9 N           0.9028    0.0784    0.1635 N.ar    1  UNL1       -0.1471
     10 C          -0.0530    0.6377    0.9242 C.ar    1  UNL1        0.1130
     11 C           0.5815    1.4472    1.8917 C.ar    1  UNL1        0.0776
     12 N           1.9072    1.4064    1.7531 N.ar    1  UNL1       -0.1549
     13 C          -1.4791    0.3885    0.7078 C.ar    1  UNL1        0.0039
     14 C          -2.4548    0.9852    1.5165 C.ar    1  UNL1       -0.0490
     15 C          -3.8138    0.7342    1.2935 C.ar    1  UNL1       -0.0193
     16 C          -4.2265   -0.1132    0.2641 C.ar    1  UNL1        0.1201
     17 O          -5.5804   -0.2691    0.1593 O.3     1  UNL1       -0.4951
     18 C          -6.0504   -1.1240   -0.8757 C.3     1  UNL1        0.0788
     19 C          -3.2648   -0.7119   -0.5462 C.ar    1  UNL1       -0.0193
     20 C          -1.9038   -0.4620   -0.3246 C.ar    1  UNL1       -0.0490
     21 H           6.6435    0.8159    0.7033 H       1  UNL1        0.0633
     22 H           4.4359    1.4262    1.6105 H       1  UNL1        0.0640
     23 H           4.7625   -1.6685   -2.2703 H       1  UNL1        0.0633
     24 H           2.5425   -1.0745   -1.3827 H       1  UNL1        0.0640
     25 H           0.1499    2.0531    2.6757 H       1  UNL1        0.0870
     26 H          -2.1879    1.6525    2.3310 H       1  UNL1        0.0625
     27 H          -4.5593    1.2054    1.9304 H       1  UNL1        0.0654
     28 H          -5.6944   -2.1496   -0.7327 H       1  UNL1        0.0660
     29 H          -7.1434   -1.1409   -0.8245 H       1  UNL1        0.0660
     30 H          -5.7692   -0.7410   -1.8622 H       1  UNL1        0.0660
     31 H          -3.5328   -1.3782   -1.3593 H       1  UNL1        0.0654
     32 H          -1.1731   -0.9432   -0.9730 H       1  UNL1        0.0625
@<TRIPOS>BOND
     1     1     2    1
     2     2     3   ar
     3     3     4   ar
     4     2     5   ar
     5     5     6   ar
     6     6     7   ar
     7     7     8    1
     8     8     9   ar
     9     9    10   ar
    10    10    11   ar
    11    11    12   ar
    12    10    13    1
    13    13    14   ar
    14    14    15   ar
    15    15    16   ar
    16    16    17    1
    17    17    18    1
    18    16    19   ar
    19    19    20   ar
    20     7     4   ar
    21    12     8   ar
    22    20    13   ar
    23     3    21    1
    24     4    22    1
    25     5    23    1
    26     6    24    1
    27    11    25    1
    28    14    26    1
    29    15    27    1
    30    18    28    1
    31    18    29    1
    32    18    30    1
    33    19    31    1
    34    20    32    1
