@<TRIPOS>MOLECULE
*****
 28 30 0 0 0
SMALL
GASTEIGER

@<TRIPOS>ATOM
      1 CL          6.6074   -1.1357   -1.1895 Cl      1  UNL1       -0.0835
      2 C           5.0183   -0.6592   -0.7334 C.ar    1  UNL1        0.0411
      3 C           3.9172   -1.3484   -1.2400 C.ar    1  UNL1       -0.0413
      4 C           2.6248   -0.9638   -0.8714 C.ar    1  UNL1       -0.0332
      5 C           4.8415    0.4133    0.1400 C.ar    1  UNL1       -0.0413
      6 C           3.5518    0.8030    0.5126 C.ar    1  UNL1       -0.0332
      7 C           2.4381    0.1145    0.0072 C.ar    1  UNL1        0.0862
      8 N           1.1260    0.5079    0.3837 N.ar    1  UNL1       -0.1497
      9 N           0.0227   -0.1308   -0.0820 N.ar    1  UNL1       -0.1471
     10 C          -0.9890    0.5344    0.5004 C.ar    1  UNL1        0.1130
     11 C          -0.4316    1.5562    1.2999 C.ar    1  UNL1        0.0776
     12 N           0.9001    1.5445    1.2304 N.ar    1  UNL1       -0.1549
     13 C          -2.3937    0.1843    0.2812 C.ar    1  UNL1        0.0037
     14 C          -2.7358   -0.8830   -0.5647 C.ar    1  UNL1       -0.0525
     15 C          -4.0727   -1.2272   -0.7822 C.ar    1  UNL1       -0.0611
     16 C          -5.0875   -0.5084   -0.1564 C.ar    1  UNL1       -0.0617
     17 C          -4.7667    0.5533    0.6859 C.ar    1  UNL1       -0.0611
     18 C          -3.4288    0.8985    0.9042 C.ar    1  UNL1       -0.0525
     19 H           4.0564   -2.1843   -1.9207 H       1  UNL1        0.0633
     20 H           1.7757   -1.5123   -1.2757 H       1  UNL1        0.0640
     21 H           5.7007    0.9498    0.5343 H       1  UNL1        0.0633
     22 H           3.4308    1.6423    1.1954 H       1  UNL1        0.0640
     23 H          -0.9225    2.2946    1.9178 H       1  UNL1        0.0870
     24 H          -1.9588   -1.4589   -1.0644 H       1  UNL1        0.0624
     25 H          -4.3177   -2.0567   -1.4406 H       1  UNL1        0.0618
     26 H          -6.1275   -0.7758   -0.3253 H       1  UNL1        0.0618
     27 H          -5.5591    1.1149    1.1748 H       1  UNL1        0.0618
     28 H          -3.2203    1.7328    1.5681 H       1  UNL1        0.0624
@<TRIPOS>BOND
     1     1     2    1
     2     2     3   ar
     3     3     4   ar
     4     2     5   ar
     5     5     6   ar
     6     6     7   ar
     7     7     8    1
     8     8     9   ar
     9     9    10   ar
    10    10    11   ar
    11    11    12   ar
    12    10    13    1
    13    13    14   ar
    14    14    15   ar
    15    15    16   ar
    16    16    17   ar
    17    17    18   ar
    18     7     4   ar
    19    12     8   ar
    20    18    13   ar
    21     3    19    1
    22     4    20    1
    23     5    21    1
    24     6    22    1
    25    11    23    1
    26    14    24    1
    27    15    25    1
    28    16    26    1
    29    17    27    1
    30    18    28    1
