@<TRIPOS>MOLECULE
*****
 38 40 0 0 0
SMALL
GASTEIGER

@<TRIPOS>ATOM
      1 CL          7.1310    0.1637    1.8722 Cl      1  UNL1       -0.0835
      2 C           5.5108   -0.0236    1.3256 C.ar    1  UNL1        0.0410
      3 C           4.4543    0.1584    2.2146 C.ar    1  UNL1       -0.0428
      4 C           3.1373    0.0055    1.7702 C.ar    1  UNL1       -0.0532
      5 C           2.8696   -0.3194    0.4329 C.ar    1  UNL1       -0.0238
      6 C           1.5029   -0.5188   -0.0661 C.2     1  UNL1       -0.0402
      7 C           0.4501    0.2330    0.2975 C.2     1  UNL1        0.0025
      8 N          -0.8913    0.1590   -0.1023 N.pl3   1  UNL1       -0.2759
      9 C          -1.7258    1.3267    0.0401 C.ar    1  UNL1        0.0382
     10 C          -1.2201    2.6213   -0.1802 C.ar    1  UNL1       -0.0400
     11 C          -2.0346    3.7493   -0.0407 C.ar    1  UNL1       -0.0600
     12 C          -3.3707    3.6047    0.3225 C.ar    1  UNL1       -0.0616
     13 C          -3.8942    2.3340    0.5444 C.ar    1  UNL1       -0.0600
     14 C          -3.0797    1.2066    0.4034 C.ar    1  UNL1       -0.0400
     15 C          -1.4255   -1.0738   -0.6161 C.ar    1  UNL1        0.0382
     16 C          -1.1827   -2.3010    0.0247 C.ar    1  UNL1       -0.0400
     17 C          -1.7129   -3.4919   -0.4788 C.ar    1  UNL1       -0.0600
     18 C          -2.4964   -3.4748   -1.6304 C.ar    1  UNL1       -0.0616
     19 C          -2.7529   -2.2686   -2.2780 C.ar    1  UNL1       -0.0600
     20 C          -2.2234   -1.0780   -1.7737 C.ar    1  UNL1       -0.0400
     21 C           3.9450   -0.5155   -0.4445 C.ar    1  UNL1       -0.0532
     22 C           5.2623   -0.3624   -0.0020 C.ar    1  UNL1       -0.0428
     23 H           4.6459    0.4130    3.2535 H       1  UNL1        0.0632
     24 H           2.3264    0.1320    2.4840 H       1  UNL1        0.0624
     25 H           1.3789   -1.3090   -0.8020 H       1  UNL1        0.0636
     26 H           0.6102    1.0568    0.9908 H       1  UNL1        0.0787
     27 H          -0.1880    2.7629   -0.4911 H       1  UNL1        0.0636
     28 H          -1.6241    4.7392   -0.2224 H       1  UNL1        0.0618
     29 H          -4.0040    4.4813    0.4310 H       1  UNL1        0.0618
     30 H          -4.9359    2.2159    0.8309 H       1  UNL1        0.0618
     31 H          -3.5090    0.2268    0.5996 H       1  UNL1        0.0636
     32 H          -0.5920   -2.3323    0.9368 H       1  UNL1        0.0636
     33 H          -1.5168   -4.4306    0.0326 H       1  UNL1        0.0618
     34 H          -2.9089   -4.4010   -2.0220 H       1  UNL1        0.0618
     35 H          -3.3630   -2.2513   -3.1772 H       1  UNL1        0.0618
     36 H          -2.4233   -0.1466   -2.2985 H       1  UNL1        0.0636
     37 H           3.7657   -0.7812   -1.4846 H       1  UNL1        0.0624
     38 H           6.0846   -0.5102   -0.6967 H       1  UNL1        0.0632
@<TRIPOS>BOND
     1     1     2    1
     2     2     3   ar
     3     3     4   ar
     4     4     5   ar
     5     5     6    1
     6     6     7    2
     7     7     8    1
     8     8     9    1
     9     9    10   ar
    10    10    11   ar
    11    11    12   ar
    12    12    13   ar
    13    13    14   ar
    14     8    15    1
    15    15    16   ar
    16    16    17   ar
    17    17    18   ar
    18    18    19   ar
    19    19    20   ar
    20     5    21   ar
    21    21    22   ar
    22    22     2   ar
    23    14     9   ar
    24    20    15   ar
    25     3    23    1
    26     4    24    1
    27     6    25    1
    28     7    26    1
    29    10    27    1
    30    11    28    1
    31    12    29    1
    32    13    30    1
    33    14    31    1
    34    16    32    1
    35    17    33    1
    36    18    34    1
    37    19    35    1
    38    20    36    1
    39    21    37    1
    40    22    38    1
