@<TRIPOS>MOLECULE
*****
 39 45 0 0 0
SMALL
GASTEIGER

@<TRIPOS>ATOM
      1 SI         -5.4789    1.4731    0.3916 Si      1  UNL1        0.0000
      2 C          -6.0746    0.4065   -1.1550 C.2     1  UNL1        0.0000
      3 C          -5.0504   -0.2535   -1.7418 C.2     1  UNL1        0.0000
      4 C          -3.8446    0.0222   -1.0626 C.ar    1  UNL1        0.0000
      5 N          -2.5924   -0.4461   -1.3409 N.ar    1  UNL1        0.0000
      6 C          -1.6869    0.0780   -0.4175 C.ar    1  UNL1        0.0000
      7 C          -2.4602    0.8817    0.4215 C.ar    1  UNL1        0.0000
      8 C          -3.7743    0.8487    0.0315 C.ar    1  UNL1        0.0000
      9 C          -1.8528    1.5891    1.4989 C.ar    1  UNL1        0.0000
     10 N          -2.5450    2.3643    2.3210 N.ar    1  UNL1        0.0000
     11 S          -1.3606    2.9278    3.3617 S.2     1  UNL1        0.0000
     12 N          -0.0088    2.1708    2.7319 N.ar    1  UNL1        0.0000
     13 C          -0.4185    1.4343    1.6736 C.ar    1  UNL1        0.0000
     14 C           0.4003    0.6163    0.8288 C.ar    1  UNL1        0.0000
     15 C           1.8249    0.5097    1.0615 C.ar    1  UNL1        0.0000
     16 C           2.7064   -0.2664    0.2723 C.ar    1  UNL1        0.0000
     17 C           4.1321   -0.3392    0.5048 C.ar    1  UNL1        0.0000
     18 C           5.2535   -0.4775   -0.2902 C.ar    1  UNL1        0.0000
     19 C           6.3752   -0.4629    0.5749 C.ar    1  UNL1        0.0000
     20 C           5.8738   -0.3077    1.8442 C.ar    1  UNL1        0.0000
     21 O           4.5199   -0.2248    1.8122 O.2     1  UNL1        0.0000
     22 C           2.0201   -0.9333   -0.7524 C.ar    1  UNL1        0.0000
     23 C           2.5429   -1.8149   -1.6691 C.ar    1  UNL1        0.0000
     24 N           1.5122   -2.2382   -2.4733 N.ar    1  UNL1        0.0000
     25 C           0.3274   -1.6563   -2.0751 C.ar    1  UNL1        0.0000
     26 C           0.5986   -0.8436   -0.9986 C.ar    1  UNL1        0.0000
     27 C          -0.2960   -0.0683   -0.2404 C.ar    1  UNL1        0.0000
     28 H          -6.1282    0.9330    1.6133 H       1  UNL1        0.0000
     29 H          -5.7250    2.9077    0.0959 H       1  UNL1        0.0000
     30 H          -7.1179    0.4123   -1.4246 H       1  UNL1        0.0000
     31 H          -5.1419   -0.8985   -2.6055 H       1  UNL1        0.0000
     32 H          -2.3602   -1.0698   -2.0971 H       1  UNL1        0.0000
     33 H           2.2509    1.0720    1.8957 H       1  UNL1        0.0000
     34 H           5.2643   -0.5611   -1.3671 H       1  UNL1        0.0000
     35 H           7.4185   -0.5458    0.3060 H       1  UNL1        0.0000
     36 H           6.3221   -0.2359    2.8252 H       1  UNL1        0.0000
     37 H           3.5405   -2.1993   -1.8272 H       1  UNL1        0.0000
     38 H           1.6072   -2.8966   -3.2362 H       1  UNL1        0.0000
     39 H          -0.5739   -1.9081   -2.6088 H       1  UNL1        0.0000
@<TRIPOS>BOND
     1     1     2    1
     2     2     3    2
     3     3     4    1
     4     4     5   ar
     5     5     6   ar
     6     6     7   ar
     7     7     8   ar
     8     7     9   ar
     9     9    10   ar
    10    10    11   ar
    11    11    12   ar
    12    12    13   ar
    13    13    14   ar
    14    14    15   ar
    15    15    16   ar
    16    16    17    1
    17    17    18   ar
    18    18    19   ar
    19    19    20   ar
    20    20    21   ar
    21    16    22   ar
    22    22    23   ar
    23    23    24   ar
    24    24    25   ar
    25    25    26   ar
    26    26    27   ar
    27     8     1    1
    28    13     9   ar
    29    27    14   ar
    30     8     4   ar
    31    21    17   ar
    32    26    22   ar
    33    27     6   ar
    34     1    28    1
    35     1    29    1
    36     2    30    1
    37     3    31    1
    38     5    32    1
    39    15    33    1
    40    18    34    1
    41    19    35    1
    42    20    36    1
    43    23    37    1
    44    24    38    1
    45    25    39    1
