@<TRIPOS>MOLECULE
*****
 24 26 0 0 0
SMALL
GASTEIGER

@<TRIPOS>ATOM
      1 CL          5.5182   -0.8125    0.0411 Cl      1  UNL1       -0.0835
      2 C           3.8786   -0.2972   -0.0259 C.ar    1  UNL1        0.0410
      3 C           2.9712   -0.9794   -0.8340 C.ar    1  UNL1       -0.0427
      4 C           1.6373   -0.5624   -0.8889 C.ar    1  UNL1       -0.0497
      5 C           1.2020    0.5315   -0.1270 C.ar    1  UNL1        0.0197
      6 C           2.1333    1.2193    0.6648 C.ar    1  UNL1       -0.0497
      7 C           3.4666    0.8033    0.7212 C.ar    1  UNL1       -0.0427
      8 C          -0.1822    0.9974   -0.1718 C.ar    1  UNL1        0.1685
      9 N          -0.5563    2.2538   -0.3501 N.ar    1  UNL1       -0.1285
     10 N          -1.9300    2.3122   -0.3542 N.ar    1  UNL1       -0.1291
     11 C          -2.3811    1.0969   -0.1465 C.ar    1  UNL1        0.1613
     12 N          -1.3145    0.2195    0.0032 N.ar    1  UNL1       -0.2825
     13 C          -1.4847   -1.1372    0.2943 C.ar    1  UNL1        0.0132
     14 C          -2.7287   -1.6342    0.4079 C.ar    1  UNL1       -0.0450
     15 C          -3.8649   -0.7439    0.2242 C.ar    1  UNL1       -0.0569
     16 C          -3.6958    0.5665   -0.0390 C.ar    1  UNL1       -0.0170
     17 H           3.2970   -1.8273   -1.4310 H       1  UNL1        0.0632
     18 H           0.9514   -1.0877   -1.5501 H       1  UNL1        0.0625
     19 H           1.8213    2.0895    1.2413 H       1  UNL1        0.0625
     20 H           4.1741    1.3463    1.3424 H       1  UNL1        0.0632
     21 H          -0.6002   -1.7448    0.4319 H       1  UNL1        0.0814
     22 H          -2.9123   -2.6785    0.6390 H       1  UNL1        0.0632
     23 H          -4.8616   -1.1669    0.3123 H       1  UNL1        0.0619
     24 H          -4.5387    1.2358   -0.1698 H       1  UNL1        0.0655
@<TRIPOS>BOND
     1     1     2    1
     2     2     3   ar
     3     3     4   ar
     4     4     5   ar
     5     5     6   ar
     6     6     7   ar
     7     5     8    1
     8     8     9   ar
     9     9    10   ar
    10    10    11   ar
    11    11    12   ar
    12    12    13   ar
    13    13    14   ar
    14    14    15   ar
    15    15    16   ar
    16     7     2   ar
    17    12     8   ar
    18    16    11   ar
    19     3    17    1
    20     4    18    1
    21     6    19    1
    22     7    20    1
    23    13    21    1
    24    14    22    1
    25    15    23    1
    26    16    24    1
