@<TRIPOS>MOLECULE
*****
 33 37 0 0 0
SMALL
GASTEIGER

@<TRIPOS>ATOM
      1 CL         -5.8155   -1.7850    0.2097 Cl      1  UNL1       -0.0835
      2 C          -4.1017   -1.6212    0.1870 C.ar    1  UNL1        0.0416
      3 C          -3.5297   -0.3517    0.0482 C.ar    1  UNL1       -0.0349
      4 C          -2.1316   -0.1761    0.0251 C.ar    1  UNL1       -0.0039
      5 C          -1.3381   -1.3328    0.1479 C.ar    1  UNL1        0.0257
      6 C          -1.9190   -2.6047    0.2871 C.ar    1  UNL1       -0.0491
      7 C          -3.3025   -2.7497    0.3067 C.ar    1  UNL1       -0.0427
      8 C           0.1119   -1.1925    0.1286 C.ar    1  UNL1        0.1469
      9 N           0.9789   -2.1754    0.2324 N.ar    1  UNL1       -0.2272
     10 C           2.2037   -1.5845    0.1650 C.ar    1  UNL1        0.0900
     11 C           3.4593   -2.2120    0.2292 C.ar    1  UNL1       -0.0342
     12 C           4.6158   -1.4390    0.1424 C.ar    1  UNL1       -0.0596
     13 C           4.5211   -0.0613   -0.0063 C.ar    1  UNL1       -0.0597
     14 C           3.2760    0.5820   -0.0723 C.ar    1  UNL1       -0.0357
     15 C           2.1051   -0.1956    0.0151 C.ar    1  UNL1        0.0739
     16 N           0.7289    0.0468   -0.0072 N.ar    1  UNL1       -0.2915
     17 C          -0.0377    1.2519   -0.1352 C.ar    1  UNL1        0.0563
     18 C          -1.4600    1.1472   -0.1199 C.ar    1  UNL1        0.0067
     19 C          -2.2004    2.3421   -0.2469 C.ar    1  UNL1       -0.0520
     20 C          -1.5794    3.5841   -0.3830 C.ar    1  UNL1       -0.0611
     21 C          -0.1970    3.6647   -0.3957 C.ar    1  UNL1       -0.0598
     22 C           0.5707    2.5065   -0.2727 C.ar    1  UNL1       -0.0372
     23 H          -4.2061    0.4920   -0.0411 H       1  UNL1        0.0638
     24 H          -1.2845   -3.4849    0.3804 H       1  UNL1        0.0625
     25 H          -3.7428   -3.7369    0.4147 H       1  UNL1        0.0632
     26 H           3.5158   -3.2892    0.3455 H       1  UNL1        0.0639
     27 H           5.5903   -1.9178    0.1913 H       1  UNL1        0.0618
     28 H           5.4312    0.5324   -0.0730 H       1  UNL1        0.0618
     29 H           3.2751    1.6556   -0.1883 H       1  UNL1        0.0639
     30 H          -3.2864    2.3423   -0.2438 H       1  UNL1        0.0624
     31 H          -2.1800    4.4854   -0.4787 H       1  UNL1        0.0618
     32 H           0.2901    4.6314   -0.5016 H       1  UNL1        0.0618
     33 H           1.6383    2.6459   -0.2908 H       1  UNL1        0.0638
@<TRIPOS>BOND
     1     1     2    1
     2     2     3   ar
     3     3     4   ar
     4     4     5   ar
     5     5     6   ar
     6     6     7   ar
     7     5     8   ar
     8     8     9   ar
     9     9    10   ar
    10    10    11   ar
    11    11    12   ar
    12    12    13   ar
    13    13    14   ar
    14    10    15   ar
    15    15    16   ar
    16    16    17   ar
    17    17    18   ar
    18    18    19   ar
    19    19    20   ar
    20    20    21   ar
    21    21    22   ar
    22     7     2   ar
    23    18     4   ar
    24    16     8   ar
    25    15    14   ar
    26    22    17   ar
    27     3    23    1
    28     6    24    1
    29     7    25    1
    30    11    26    1
    31    12    27    1
    32    13    28    1
    33    14    29    1
    34    19    30    1
    35    20    31    1
    36    21    32    1
    37    22    33    1
