@<TRIPOS>MOLECULE
*****
 23 26 0 0 0
SMALL
GASTEIGER

@<TRIPOS>ATOM
      1 CL         -4.6614   -1.6471   -0.9617 Cl      1  UNL1       -0.0835
      2 C          -3.2720   -0.7126   -0.5501 C.ar    1  UNL1        0.0416
      3 C          -2.0116   -1.3191   -0.5863 C.ar    1  UNL1       -0.0336
      4 C          -0.9314   -0.5331   -0.2496 C.ar    1  UNL1        0.0109
      5 C          -1.1053    0.8554    0.1229 C.ar    1  UNL1        0.0270
      6 C           0.2053    1.4008    0.4164 C.ar    1  UNL1        0.1463
      7 N           0.8485    2.4803    0.7892 N.ar    1  UNL1       -0.2349
      8 C           2.2032    2.0714    0.8187 C.ar    1  UNL1        0.0538
      9 C           2.3458    0.7402    0.4590 C.ar    1  UNL1        0.0666
     10 N           1.0677    0.3846    0.2223 N.ar    1  UNL1       -0.2921
     11 C           0.5187   -0.8122   -0.1733 C.ar    1  UNL1        0.0564
     12 C           1.3816   -1.8228   -0.3659 C.ar    1  UNL1       -0.0371
     13 C           2.8186   -1.5328   -0.1308 C.ar    1  UNL1       -0.0578
     14 C           3.2808   -0.3132    0.2621 C.ar    1  UNL1       -0.0362
     15 C          -2.3484    1.4460    0.1565 C.ar    1  UNL1       -0.0491
     16 C          -3.4426    0.6430   -0.1864 C.ar    1  UNL1       -0.0427
     17 H          -1.8918   -2.3590   -0.8664 H       1  UNL1        0.0639
     18 H           2.9772    2.7743    1.0993 H       1  UNL1        0.0851
     19 H           1.0792   -2.8148   -0.6776 H       1  UNL1        0.0638
     20 H           3.5124   -2.3547   -0.2882 H       1  UNL1        0.0619
     21 H           4.3390   -0.1365    0.4248 H       1  UNL1        0.0639
     22 H          -2.4722    2.4868    0.4364 H       1  UNL1        0.0625
     23 H          -4.4415    1.0751   -0.1713 H       1  UNL1        0.0632
@<TRIPOS>BOND
     1     1     2    1
     2     2     3   ar
     3     3     4   ar
     4     4     5   ar
     5     5     6   ar
     6     6     7   ar
     7     7     8   ar
     8     8     9   ar
     9     9    10   ar
    10    10    11   ar
    11    11    12   ar
    12    12    13   ar
    13    13    14   ar
    14     5    15   ar
    15    15    16   ar
    16    16     2   ar
    17    11     4   ar
    18    10     6   ar
    19    14     9   ar
    20     3    17    1
    21     8    18    1
    22    12    19    1
    23    13    20    1
    24    14    21    1
    25    15    22    1
    26    16    23    1
