@<TRIPOS>MOLECULE
*****
 46 49 0 0 0
SMALL
GASTEIGER

@<TRIPOS>ATOM
      1 CL         -6.1193    3.1202   -0.8936 Cl      1  UNL1       -0.0835
      2 C          -4.5490    2.4377   -0.7326 C.ar    1  UNL1        0.0410
      3 C          -4.0921    1.5188   -1.6715 C.ar    1  UNL1       -0.0431
      4 C          -2.8138    0.9653   -1.5405 C.ar    1  UNL1       -0.0553
      5 C          -1.9738    1.3226   -0.4709 C.ar    1  UNL1       -0.0227
      6 C          -0.5717    0.7290   -0.2768 C.3     1  UNL1        0.0976
      7 C           0.3178    0.7793   -1.4964 C.ar    1  UNL1        0.1732
      8 N          -0.0146    1.0384   -2.7484 N.ar    1  UNL1       -0.1114
      9 N           1.1311    0.9381   -3.4905 N.ar    1  UNL1       -0.0230
     10 N           2.1619    0.6191   -2.7269 N.ar    1  UNL1       -0.0436
     11 N           1.6712    0.5351   -1.4772 N.ar    1  UNL1       -0.2244
     12 C           2.5331    0.2035   -0.3699 C.3     1  UNL1        0.0564
     13 C           2.9335   -1.2781   -0.3165 C.3     1  UNL1       -0.0304
     14 C           4.3789   -1.3100    0.1848 C.3     1  UNL1       -0.0511
     15 C           4.7091    0.1174    0.5986 C.3     1  UNL1       -0.0511
     16 C           3.8626    0.9645   -0.3371 C.3     1  UNL1       -0.0304
     17 N          -0.5457   -0.6100    0.3592 N.3     1  UNL1       -0.2875
     18 C          -1.0728   -1.7217   -0.4496 C.3     1  UNL1        0.0089
     19 C          -2.3836   -2.3528    0.0358 C.3     1  UNL1        0.0065
     20 S          -2.2213   -3.1226    1.6828 S.3     1  UNL1       -0.1582
     21 C          -0.9834   -1.9966    2.4061 C.3     1  UNL1        0.0065
     22 C          -1.0024   -0.6083    1.7567 C.3     1  UNL1        0.0089
     23 C          -2.4616    2.2568    0.4652 C.ar    1  UNL1       -0.0553
     24 C          -3.7390    2.8098    0.3361 C.ar    1  UNL1       -0.0431
     25 H          -4.7181    1.2342   -2.5135 H       1  UNL1        0.0632
     26 H          -2.4773    0.2648   -2.3021 H       1  UNL1        0.0621
     27 H          -0.0667    1.4123    0.4232 H       1  UNL1        0.0594
     28 H           1.9993    0.4512    0.5549 H       1  UNL1        0.0546
     29 H           2.8631   -1.7715   -1.2929 H       1  UNL1        0.0286
     30 H           2.2750   -1.8280    0.3656 H       1  UNL1        0.0286
     31 H           4.5120   -2.0141    1.0115 H       1  UNL1        0.0266
     32 H           5.0419   -1.6268   -0.6288 H       1  UNL1        0.0266
     33 H           5.7765    0.3391    0.5120 H       1  UNL1        0.0266
     34 H           4.4090    0.2872    1.6395 H       1  UNL1        0.0266
     35 H           4.3355    1.0122   -1.3250 H       1  UNL1        0.0286
     36 H           3.7420    1.9899    0.0266 H       1  UNL1        0.0286
     37 H          -0.2992   -2.5018   -0.4655 H       1  UNL1        0.0435
     38 H          -1.1901   -1.4415   -1.5019 H       1  UNL1        0.0435
     39 H          -2.6971   -3.1337   -0.6644 H       1  UNL1        0.0389
     40 H          -3.1872   -1.6104    0.0744 H       1  UNL1        0.0389
     41 H           0.0075   -2.4549    2.3097 H       1  UNL1        0.0389
     42 H          -1.1970   -1.9071    3.4767 H       1  UNL1        0.0389
     43 H          -0.3335    0.0377    2.3376 H       1  UNL1        0.0435
     44 H          -2.0105   -0.1879    1.8542 H       1  UNL1        0.0435
     45 H          -1.8478    2.5636    1.3101 H       1  UNL1        0.0621
     46 H          -4.0921    3.5300    1.0694 H       1  UNL1        0.0632
@<TRIPOS>BOND
     1     1     2    1
     2     2     3   ar
     3     3     4   ar
     4     4     5   ar
     5     5     6    1
     6     6     7    1
     7     7     8   ar
     8     8     9   ar
     9     9    10   ar
    10    10    11   ar
    11    11    12    1
    12    12    13    1
    13    13    14    1
    14    14    15    1
    15    15    16    1
    16     6    17    1
    17    17    18    1
    18    18    19    1
    19    19    20    1
    20    20    21    1
    21    21    22    1
    22     5    23   ar
    23    23    24   ar
    24    24     2   ar
    25    11     7   ar
    26    16    12    1
    27    22    17    1
    28     3    25    1
    29     4    26    1
    30     6    27    1
    31    12    28    1
    32    13    29    1
    33    13    30    1
    34    14    31    1
    35    14    32    1
    36    15    33    1
    37    15    34    1
    38    16    35    1
    39    16    36    1
    40    18    37    1
    41    18    38    1
    42    19    39    1
    43    19    40    1
    44    21    41    1
    45    21    42    1
    46    22    43    1
    47    22    44    1
    48    23    45    1
    49    24    46    1
