@<TRIPOS>MOLECULE
*****
 30 32 0 0 0
SMALL
GASTEIGER

@<TRIPOS>ATOM
      1 CL          7.4301    0.3837   -0.3189 Cl      1  UNL1       -0.0835
      2 C           5.7150    0.3866   -0.1781 C.ar    1  UNL1        0.0410
      3 C           5.0949   -0.4560    0.7418 C.ar    1  UNL1       -0.0431
      4 C           3.7028   -0.4541    0.8560 C.ar    1  UNL1       -0.0564
      5 C           2.9238    0.3948    0.0545 C.ar    1  UNL1       -0.0371
      6 C           1.4169    0.3866    0.1677 C.3     1  UNL1        0.0249
      7 S           0.6765   -0.8296   -0.9586 S.3     1  UNL1       -0.0997
      8 C          -1.0128   -0.5960   -0.5957 C.ar    1  UNL1        0.1153
      9 C          -2.0568   -1.2886   -1.1862 C.ar    1  UNL1        0.0380
     10 N          -3.1446   -0.7676   -0.5964 N.ar    1  UNL1       -0.3332
     11 C          -2.7675    0.1779    0.3044 C.ar    1  UNL1        0.1110
     12 N          -1.4687    0.3199    0.3368 N.ar    1  UNL1       -0.2261
     13 C          -3.9354    0.7652    0.9873 C.3     1  UNL1        0.0072
     14 C          -5.0491   -0.2513    0.6245 C.3     1  UNL1       -0.0281
     15 C          -4.5752   -0.9651   -0.6564 C.3     1  UNL1        0.0248
     16 C           3.5637    1.2317   -0.8729 C.ar    1  UNL1       -0.0564
     17 C           4.9558    1.2294   -0.9867 C.ar    1  UNL1       -0.0431
     18 H           5.6860   -1.1179    1.3686 H       1  UNL1        0.0632
     19 H           3.2262   -1.1220    1.5710 H       1  UNL1        0.0621
     20 H           1.0300    1.3870   -0.0592 H       1  UNL1        0.0429
     21 H           1.1314    0.1580    1.2012 H       1  UNL1        0.0429
     22 H          -2.0839   -2.0641   -1.9376 H       1  UNL1        0.0836
     23 H          -4.1636    1.7534    0.5759 H       1  UNL1        0.0344
     24 H          -3.8004    0.8428    2.0690 H       1  UNL1        0.0344
     25 H          -5.1397   -0.9877    1.4339 H       1  UNL1        0.0286
     26 H          -6.0273    0.2237    0.5039 H       1  UNL1        0.0286
     27 H          -4.8019   -2.0336   -0.6589 H       1  UNL1        0.0492
     28 H          -4.9426   -0.4766   -1.5634 H       1  UNL1        0.0492
     29 H           2.9780    1.8869   -1.5148 H       1  UNL1        0.0621
     30 H           5.4385    1.8825   -1.7084 H       1  UNL1        0.0632
@<TRIPOS>BOND
     1     1     2    1
     2     2     3   ar
     3     3     4   ar
     4     4     5   ar
     5     5     6    1
     6     6     7    1
     7     7     8    1
     8     8     9   ar
     9     9    10   ar
    10    10    11   ar
    11    11    12   ar
    12    11    13    1
    13    13    14    1
    14    14    15    1
    15     5    16   ar
    16    16    17   ar
    17    17     2   ar
    18    12     8   ar
    19    15    10    1
    20     3    18    1
    21     4    19    1
    22     6    20    1
    23     6    21    1
    24     9    22    1
    25    13    23    1
    26    13    24    1
    27    14    25    1
    28    14    26    1
    29    15    27    1
    30    15    28    1
    31    16    29    1
    32    17    30    1
