@<TRIPOS>MOLECULE
*****
 29 32 0 0 0
SMALL
GASTEIGER

@<TRIPOS>ATOM
      1 CL          3.7152   -3.4039   -1.1353 Cl      1  UNL1       -0.0835
      2 C           3.7754   -1.7395   -0.7040 C.ar    1  UNL1        0.0416
      3 C           5.0052   -1.0928   -0.6183 C.ar    1  UNL1       -0.0434
      4 C           5.0522    0.2555   -0.2688 C.ar    1  UNL1       -0.0597
      5 C           3.8698    0.9548   -0.0055 C.ar    1  UNL1       -0.0519
      6 C           2.6281    0.3077   -0.0905 C.ar    1  UNL1        0.0103
      7 C           1.3357    0.9924    0.1764 C.ar    1  UNL1        0.1324
      8 N           0.1804    0.3812    0.0950 N.ar    1  UNL1       -0.1553
      9 N          -0.7690    1.3118    0.4030 N.ar    1  UNL1       -0.1854
     10 C          -2.1434    1.3047    0.4945 C.ar    1  UNL1        0.1859
     11 C          -3.0472    0.1739    0.2601 C.ar    1  UNL1        0.0239
     12 C          -2.6071   -1.1010   -0.1032 C.ar    1  UNL1       -0.0328
     13 C          -3.5461   -2.1027   -0.3014 C.ar    1  UNL1        0.0282
     14 N          -4.8754   -1.9259   -0.1649 N.ar    1  UNL1       -0.2632
     15 C          -5.2872   -0.6915    0.1858 C.ar    1  UNL1        0.0282
     16 C          -4.4261    0.3709    0.4052 C.ar    1  UNL1       -0.0328
     17 N          -2.5195    2.5378    0.8426 N.ar    1  UNL1       -0.1265
     18 N          -1.3969    3.3441    0.9772 N.ar    1  UNL1       -0.1199
     19 C          -0.3878    2.5727    0.7068 C.ar    1  UNL1        0.2186
     20 S           1.3082    2.7199    0.6301 S.2     1  UNL1       -0.0262
     21 C           2.5916   -1.0501   -0.4432 C.ar    1  UNL1       -0.0336
     22 H           5.9274   -1.6316   -0.8219 H       1  UNL1        0.0632
     23 H           6.0116    0.7645   -0.2008 H       1  UNL1        0.0618
     24 H           3.9543    2.0046    0.2634 H       1  UNL1        0.0624
     25 H          -1.5595   -1.3418   -0.2372 H       1  UNL1        0.0640
     26 H          -3.2405   -3.1063   -0.5846 H       1  UNL1        0.0830
     27 H          -6.3618   -0.5711    0.2902 H       1  UNL1        0.0830
     28 H          -4.8308    1.3394    0.6860 H       1  UNL1        0.0640
     29 H           1.6432   -1.5778   -0.5169 H       1  UNL1        0.0639
@<TRIPOS>BOND
     1     1     2    1
     2     2     3   ar
     3     3     4   ar
     4     4     5   ar
     5     5     6   ar
     6     6     7    1
     7     7     8   ar
     8     8     9   ar
     9     9    10   ar
    10    10    11    1
    11    11    12   ar
    12    12    13   ar
    13    13    14   ar
    14    14    15   ar
    15    15    16   ar
    16    10    17   ar
    17    17    18   ar
    18    18    19   ar
    19    19    20   ar
    20     6    21   ar
    21    21     2   ar
    22    20     7   ar
    23    19     9   ar
    24    16    11   ar
    25     3    22    1
    26     4    23    1
    27     5    24    1
    28    12    25    1
    29    13    26    1
    30    15    27    1
    31    16    28    1
    32    21    29    1
