@<TRIPOS>MOLECULE
*****
 30 32 0 0 0
SMALL
GASTEIGER

@<TRIPOS>ATOM
      1 CL          6.2523   -1.1634    1.8472 Cl      1  UNL1       -0.0834
      2 C           5.2640   -0.7489    0.4991 C.ar    1  UNL1        0.0444
      3 C           5.8221   -0.7131   -0.7772 C.ar    1  UNL1       -0.0432
      4 C           5.0219   -0.3782   -1.8668 C.ar    1  UNL1       -0.0569
      5 C           3.6720   -0.0820   -1.6703 C.ar    1  UNL1       -0.0198
      6 C           3.1103   -0.1166   -0.3896 C.ar    1  UNL1        0.1226
      7 O           1.7796    0.1954   -0.3464 O.3     1  UNL1       -0.4825
      8 C           1.1510    0.1961    0.9353 C.3     1  UNL1        0.1677
      9 C          -0.2691    0.5660    0.7232 C.ar    1  UNL1        0.2653
     10 N          -1.3549   -0.1727    0.7877 N.ar    1  UNL1       -0.1884
     11 C          -2.3538    0.7381    0.5119 C.ar    1  UNL1        0.2023
     12 C          -3.7598    0.3572    0.4622 C.ar    1  UNL1        0.0253
     13 C          -4.1375   -0.9707    0.6789 C.ar    1  UNL1       -0.0328
     14 C          -5.4825   -1.2935    0.6241 C.ar    1  UNL1        0.0282
     15 N          -6.4587   -0.3966    0.3726 N.ar    1  UNL1       -0.2632
     16 C          -6.0740    0.8800    0.1648 C.ar    1  UNL1        0.0282
     17 C          -4.7557    1.3016    0.1985 C.ar    1  UNL1       -0.0328
     18 N          -1.9069    1.9885    0.3078 N.ar    1  UNL1       -0.0560
     19 O          -0.5255    1.8756    0.4445 O.2     1  UNL1       -0.3341
     20 C           3.9130   -0.4530    0.7006 C.ar    1  UNL1       -0.0016
     21 H           6.8732   -0.9441   -0.9280 H       1  UNL1        0.0632
     22 H           5.4454   -0.3473   -2.8675 H       1  UNL1        0.0619
     23 H           3.0504    0.1789   -2.5247 H       1  UNL1        0.0654
     24 H           1.6243    0.9306    1.5971 H       1  UNL1        0.0797
     25 H           1.1998   -0.8025    1.3845 H       1  UNL1        0.0797
     26 H          -3.4032   -1.7427    0.8854 H       1  UNL1        0.0640
     27 H          -5.8203   -2.3132    0.7859 H       1  UNL1        0.0830
     28 H          -6.8802    1.5799   -0.0366 H       1  UNL1        0.0830
     29 H          -4.5194    2.3460    0.0214 H       1  UNL1        0.0640
     30 H           3.5224   -0.4953    1.7110 H       1  UNL1        0.0669
@<TRIPOS>BOND
     1     1     2    1
     2     2     3   ar
     3     3     4   ar
     4     4     5   ar
     5     5     6   ar
     6     6     7    1
     7     7     8    1
     8     8     9    1
     9     9    10   ar
    10    10    11   ar
    11    11    12    1
    12    12    13   ar
    13    13    14   ar
    14    14    15   ar
    15    15    16   ar
    16    16    17   ar
    17    11    18   ar
    18    18    19   ar
    19     6    20   ar
    20    20     2   ar
    21    19     9   ar
    22    17    12   ar
    23     3    21    1
    24     4    22    1
    25     5    23    1
    26     8    24    1
    27     8    25    1
    28    13    26    1
    29    14    27    1
    30    16    28    1
    31    17    29    1
    32    20    30    1
