@<TRIPOS>MOLECULE
*****
 44 46 0 0 0
SMALL
GASTEIGER

@<TRIPOS>ATOM
      1 C          -2.6662   -1.8055   -1.1545 C.3     1  UNL1        0.0036
      2 N          -2.2734   -0.6459   -0.3577 N.am    1  UNL1       -0.2987
      3 C          -0.9438   -0.2499   -0.1636 C.2     1  UNL1        0.2533
      4 O          -0.6578    0.8250    0.3684 O.2     1  UNL1       -0.2719
      5 C           0.1500   -1.2165   -0.6277 C.3     1  UNL1        0.1686
      6 O           1.4440   -0.7821   -0.2073 O.3     1  UNL1       -0.4513
      7 C           2.4620   -1.5778   -0.6295 C.2     1  UNL1        0.3478
      8 O           2.2823   -2.5780   -1.3179 O.2     1  UNL1       -0.2443
      9 C           3.7465   -1.0782   -0.1730 C.ar    1  UNL1        0.1156
     10 S           5.1513   -1.8256   -0.8174 S.2     1  UNL1       -0.0803
     11 C           6.2176   -0.8198    0.0712 C.ar    1  UNL1        0.0215
     12 C           7.6266   -0.8556    0.0444 C.ar    1  UNL1       -0.0474
     13 C           8.3434    0.0399    0.8396 C.ar    1  UNL1       -0.0607
     14 C           7.6782    0.9520    1.6449 C.ar    1  UNL1       -0.0611
     15 C           6.2804    0.9825    1.6673 C.ar    1  UNL1       -0.0521
     16 C           5.5181    0.0862    0.8700 C.ar    1  UNL1        0.0083
     17 C           4.0900   -0.0804    0.7215 C.ar    1  UNL1        0.0698
     18 CL          3.0008    0.9023    1.6268 Cl      1  UNL1       -0.0815
     19 C          -3.3337    0.2787    0.0943 C.3     1  UNL1        0.0258
     20 C          -4.6252   -0.4192    0.5421 C.3     1  UNL1       -0.0343
     21 C          -5.6189    0.5704    1.1574 C.3     1  UNL1       -0.0514
     22 C          -5.5321    1.9766    0.5617 C.3     1  UNL1       -0.0529
     23 C          -5.0260    1.9560   -0.8736 C.3     1  UNL1       -0.0514
     24 C          -3.6237    1.3508   -0.9771 C.3     1  UNL1       -0.0343
     25 H          -3.2079   -2.5066   -0.5138 H       1  UNL1        0.0429
     26 H          -3.3146   -1.4755   -1.9715 H       1  UNL1        0.0429
     27 H          -1.8169   -2.3296   -1.5924 H       1  UNL1        0.0429
     28 H          -0.0497   -2.2010   -0.1898 H       1  UNL1        0.0796
     29 H           0.1227   -1.2518   -1.7227 H       1  UNL1        0.0796
     30 H           8.1506   -1.5703   -0.5853 H       1  UNL1        0.0629
     31 H           9.4308    0.0198    0.8259 H       1  UNL1        0.0618
     32 H           8.2423    1.6472    2.2623 H       1  UNL1        0.0618
     33 H           5.7769    1.7062    2.3060 H       1  UNL1        0.0624
     34 H          -2.9444    0.8020    0.9787 H       1  UNL1        0.0500
     35 H          -4.4069   -1.2115    1.2681 H       1  UNL1        0.0283
     36 H          -5.1037   -0.9087   -0.3158 H       1  UNL1        0.0283
     37 H          -6.6335    0.1745    1.0277 H       1  UNL1        0.0266
     38 H          -5.4546    0.6368    2.2397 H       1  UNL1        0.0266
     39 H          -6.5152    2.4581    0.6115 H       1  UNL1        0.0265
     40 H          -4.8553    2.5883    1.1715 H       1  UNL1        0.0265
     41 H          -5.7198    1.3719   -1.4912 H       1  UNL1        0.0266
     42 H          -5.0188    2.9705   -1.2879 H       1  UNL1        0.0266
     43 H          -3.4964    0.9446   -1.9881 H       1  UNL1        0.0283
     44 H          -2.8758    2.1491   -0.8840 H       1  UNL1        0.0283
@<TRIPOS>BOND
     1     1     2    1
     2     2     3   am
     3     3     4    2
     4     3     5    1
     5     5     6    1
     6     6     7    1
     7     7     8    2
     8     7     9    1
     9     9    10   ar
    10    10    11   ar
    11    11    12   ar
    12    12    13   ar
    13    13    14   ar
    14    14    15   ar
    15    15    16   ar
    16    16    17   ar
    17    17    18    1
    18     2    19    1
    19    19    20    1
    20    20    21    1
    21    21    22    1
    22    22    23    1
    23    23    24    1
    24    17     9   ar
    25    24    19    1
    26    16    11   ar
    27     1    25    1
    28     1    26    1
    29     1    27    1
    30     5    28    1
    31     5    29    1
    32    12    30    1
    33    13    31    1
    34    14    32    1
    35    15    33    1
    36    19    34    1
    37    20    35    1
    38    20    36    1
    39    21    37    1
    40    21    38    1
    41    22    39    1
    42    22    40    1
    43    23    41    1
    44    23    42    1
    45    24    43    1
    46    24    44    1
