@<TRIPOS>MOLECULE
*****
 44 45 0 0 0
SMALL
GASTEIGER

@<TRIPOS>ATOM
      1 C           3.7337    1.5079    1.4719 C.3     1  UNL1        0.0043
      2 N           3.5130    1.4798    0.0331 N.am    1  UNL1       -0.2916
      3 C           4.3198    2.4115   -0.7332 C.3     1  UNL1        0.0043
      4 C           3.1679    0.2887   -0.6031 C.2     1  UNL1        0.3043
      5 O           3.6789   -0.0517   -1.6695 O.2     1  UNL1       -0.2524
      6 N           2.2136   -0.4934    0.0513 N.am    1  UNL1       -0.2855
      7 C           0.9785    0.1461    0.5015 C.3     1  UNL1        0.0168
      8 C           0.2865   -0.6945    1.5701 C.3     1  UNL1       -0.0259
      9 C           0.0275   -2.1290    1.0860 C.3     1  UNL1        0.0384
     10 C          -1.1107   -2.1807    0.0670 C.2     1  UNL1        0.2165
     11 O          -0.9525   -2.5207   -1.1003 O.2     1  UNL1       -0.2755
     12 N          -2.3347   -1.8157    0.5820 N.am    1  UNL1       -0.3110
     13 C          -3.4805   -1.5966   -0.2724 C.3     1  UNL1        0.0368
     14 C          -3.6336   -0.1264   -0.5672 C.ar    1  UNL1       -0.0303
     15 C          -4.5114    0.6696    0.1819 C.ar    1  UNL1       -0.0571
     16 C          -4.6207    2.0371   -0.0772 C.ar    1  UNL1       -0.0615
     17 C          -3.8498    2.6224   -1.0804 C.ar    1  UNL1       -0.0617
     18 C          -2.9680    1.8424   -1.8258 C.ar    1  UNL1       -0.0615
     19 C          -2.8586    0.4754   -1.5698 C.ar    1  UNL1       -0.0571
     20 C           1.3203   -2.7463    0.5336 C.3     1  UNL1       -0.0259
     21 C           2.0275   -1.8419   -0.4749 C.3     1  UNL1        0.0168
     22 H           4.7988    1.3426    1.6651 H       1  UNL1        0.0429
     23 H           3.1793    0.7304    2.0010 H       1  UNL1        0.0429
     24 H           3.4405    2.4891    1.8555 H       1  UNL1        0.0429
     25 H           5.3654    2.0892   -0.7087 H       1  UNL1        0.0429
     26 H           4.2268    3.4122   -0.3017 H       1  UNL1        0.0429
     27 H           3.9810    2.4425   -1.7735 H       1  UNL1        0.0429
     28 H           1.1668    1.1510    0.8894 H       1  UNL1        0.0465
     29 H           0.3328    0.2767   -0.3761 H       1  UNL1        0.0465
     30 H           0.9289   -0.7368    2.4592 H       1  UNL1        0.0288
     31 H          -0.6396   -0.1963    1.8755 H       1  UNL1        0.0288
     32 H          -0.2989   -2.7376    1.9401 H       1  UNL1        0.0395
     33 H          -2.3899   -1.4549    1.5235 H       1  UNL1        0.1490
     34 H          -4.3608   -1.9757    0.2582 H       1  UNL1        0.0512
     35 H          -3.3908   -2.1653   -1.2046 H       1  UNL1        0.0512
     36 H          -5.1182    0.2301    0.9701 H       1  UNL1        0.0621
     37 H          -5.3080    2.6473    0.5032 H       1  UNL1        0.0618
     38 H          -3.9362    3.6869   -1.2824 H       1  UNL1        0.0618
     39 H          -2.3642    2.2968   -2.6073 H       1  UNL1        0.0618
     40 H          -2.1612   -0.1239   -2.1545 H       1  UNL1        0.0621
     41 H           1.1218   -3.7222    0.0752 H       1  UNL1        0.0288
     42 H           2.0016   -2.9258    1.3759 H       1  UNL1        0.0288
     43 H           1.4704   -1.7682   -1.4158 H       1  UNL1        0.0465
     44 H           3.0072   -2.2721   -0.7157 H       1  UNL1        0.0465
@<TRIPOS>BOND
     1     1     2    1
     2     2     3    1
     3     2     4   am
     4     4     5    2
     5     4     6   am
     6     6     7    1
     7     7     8    1
     8     8     9    1
     9     9    10    1
    10    10    11    2
    11    10    12   am
    12    12    13    1
    13    13    14    1
    14    14    15   ar
    15    15    16   ar
    16    16    17   ar
    17    17    18   ar
    18    18    19   ar
    19     9    20    1
    20    20    21    1
    21    21     6    1
    22    19    14   ar
    23     1    22    1
    24     1    23    1
    25     1    24    1
    26     3    25    1
    27     3    26    1
    28     3    27    1
    29     7    28    1
    30     7    29    1
    31     8    30    1
    32     8    31    1
    33     9    32    1
    34    12    33    1
    35    13    34    1
    36    13    35    1
    37    15    36    1
    38    16    37    1
    39    17    38    1
    40    18    39    1
    41    19    40    1
    42    20    41    1
    43    20    42    1
    44    21    43    1
    45    21    44    1
