@<TRIPOS>MOLECULE
*****
 31 33 0 0 0
SMALL
GASTEIGER

@<TRIPOS>ATOM
      1 C          -4.0194    1.4616    0.6236 C.3     1  UNL1        0.0004
      2 N          -3.4302    0.5907   -0.3914 N.pl3   1  UNL1       -0.3360
      3 C          -4.3476   -0.3513   -1.0295 C.3     1  UNL1        0.0004
      4 C          -2.0707    0.2708   -0.3146 C.ar    1  UNL1        0.0292
      5 C          -1.1881    0.9453    0.5463 C.ar    1  UNL1       -0.0401
      6 C           0.1799    0.6365    0.6164 C.ar    1  UNL1       -0.0508
      7 C          -1.4893   -0.7164   -1.1287 C.ar    1  UNL1       -0.0401
      8 C          -0.1228   -1.0334   -1.0687 C.ar    1  UNL1       -0.0508
      9 C           0.7277   -0.3632   -0.1870 C.ar    1  UNL1        0.0007
     10 C           2.1611   -0.7010   -0.1051 C.ar    1  UNL1        0.0777
     11 C           2.5208   -1.9710    0.1624 C.ar    1  UNL1       -0.0173
     12 C           3.9816   -2.2329    0.2440 C.ar    1  UNL1        0.0335
     13 N           4.9309   -1.3651    0.0884 N.ar    1  UNL1       -0.2190
     14 C           4.5300   -0.0864   -0.1758 C.ar    1  UNL1        0.2533
     15 N           5.2668    0.9847   -0.3747 N.ar    1  UNL1       -0.1974
     16 C           4.3510    1.9643   -0.5895 C.ar    1  UNL1        0.1406
     17 N           3.0740    1.5931   -0.5360 N.ar    1  UNL1       -0.1518
     18 N           3.1707    0.2625   -0.2730 N.ar    1  UNL1       -0.1963
     19 H          -3.5427    2.4477    0.6257 H       1  UNL1        0.0428
     20 H          -3.9424    1.0124    1.6199 H       1  UNL1        0.0428
     21 H          -5.0815    1.6432    0.4238 H       1  UNL1        0.0428
     22 H          -4.1129   -0.4744   -2.0922 H       1  UNL1        0.0428
     23 H          -5.3817    0.0093   -0.9904 H       1  UNL1        0.0428
     24 H          -4.3202   -1.3265   -0.5308 H       1  UNL1        0.0428
     25 H          -1.5385    1.7440    1.1931 H       1  UNL1        0.0636
     26 H           0.8054    1.2011    1.3051 H       1  UNL1        0.0625
     27 H          -2.0866   -1.2654   -1.8505 H       1  UNL1        0.0636
     28 H           0.2606   -1.8011   -1.7370 H       1  UNL1        0.0625
     29 H           1.8353   -2.7910    0.3293 H       1  UNL1        0.0654
     30 H           4.2537   -3.2799    0.4604 H       1  UNL1        0.0831
     31 H           4.6253    2.9920   -0.7922 H       1  UNL1        0.1066
@<TRIPOS>BOND
     1     1     2    1
     2     2     3    1
     3     2     4    1
     4     4     5   ar
     5     5     6   ar
     6     4     7   ar
     7     7     8   ar
     8     8     9   ar
     9     9    10    1
    10    10    11   ar
    11    11    12   ar
    12    12    13   ar
    13    13    14   ar
    14    14    15   ar
    15    15    16   ar
    16    16    17   ar
    17    17    18   ar
    18     9     6   ar
    19    18    10   ar
    20    18    14   ar
    21     1    19    1
    22     1    20    1
    23     1    21    1
    24     3    22    1
    25     3    23    1
    26     3    24    1
    27     5    25    1
    28     6    26    1
    29     7    27    1
    30     8    28    1
    31    11    29    1
    32    12    30    1
    33    16    31    1
