@<TRIPOS>MOLECULE
*****
 35 40 0 0 0
SMALL
GASTEIGER

@<TRIPOS>ATOM
      1 SI          5.4834   -1.2876    1.0325 Si      1  UNL1        0.0000
      2 C           6.2862    0.3192    0.2456 C.2     1  UNL1        0.0000
      3 C           5.3545    1.1574   -0.2636 C.2     1  UNL1        0.0000
      4 C           4.0613    0.6206   -0.0756 C.ar    1  UNL1        0.0000
      5 N           2.8766    1.1667   -0.4507 N.ar    1  UNL1        0.0000
      6 C           1.8787    0.2842   -0.0586 C.ar    1  UNL1        0.0000
      7 C           2.4684   -0.8071    0.5586 C.ar    1  UNL1        0.0000
      8 S           1.3165   -1.9920    1.0964 S.2     1  UNL1        0.0000
      9 C           0.0010   -1.0326    0.4949 C.ar    1  UNL1        0.0000
     10 C          -1.3880   -1.3217    0.5454 C.ar    1  UNL1        0.0000
     11 C          -2.3433   -0.4253    0.0167 C.ar    1  UNL1        0.0000
     12 C          -3.7676   -0.6967    0.0894 C.ar    1  UNL1        0.0000
     13 C          -4.5017   -1.7637   -0.3969 C.ar    1  UNL1        0.0000
     14 C          -5.8551   -1.5669   -0.0305 C.ar    1  UNL1        0.0000
     15 C          -5.9163   -0.3968    0.6900 C.ar    1  UNL1        0.0000
     16 N          -4.6479    0.1145    0.7714 N.ar    1  UNL1        0.0000
     17 C          -1.8001    0.7345   -0.5677 C.ar    1  UNL1        0.0000
     18 C          -2.5545    1.7069   -1.1932 C.ar    1  UNL1        0.0000
     19 S          -1.5915    3.0010   -1.8011 S.2     1  UNL1        0.0000
     20 C          -0.1300    2.2620   -1.2678 C.ar    1  UNL1        0.0000
     21 C          -0.4182    1.0794   -0.6511 C.ar    1  UNL1        0.0000
     22 C           0.4851    0.1271   -0.0771 C.ar    1  UNL1        0.0000
     23 C           3.8479   -0.5845    0.5432 C.ar    1  UNL1        0.0000
     24 H           5.9221   -2.4835    0.2699 H       1  UNL1        0.0000
     25 H           5.7594   -1.3141    2.4911 H       1  UNL1        0.0000
     26 H           7.3574    0.4368    0.2616 H       1  UNL1        0.0000
     27 H           5.5675    2.1024   -0.7459 H       1  UNL1        0.0000
     28 H           2.7186    2.0436   -0.9252 H       1  UNL1        0.0000
     29 H          -1.7216   -2.2463    1.0132 H       1  UNL1        0.0000
     30 H          -4.1028   -2.5938   -0.9663 H       1  UNL1        0.0000
     31 H          -6.6916   -2.2136   -0.2623 H       1  UNL1        0.0000
     32 H          -6.7489    0.1105    1.1584 H       1  UNL1        0.0000
     33 H          -4.3883    0.9600    1.2625 H       1  UNL1        0.0000
     34 H          -3.6244    1.7435   -1.3465 H       1  UNL1        0.0000
     35 H           0.8073    2.7558   -1.4607 H       1  UNL1        0.0000
@<TRIPOS>BOND
     1     1     2    1
     2     2     3    2
     3     3     4    1
     4     4     5   ar
     5     5     6   ar
     6     6     7   ar
     7     7     8   ar
     8     8     9   ar
     9     9    10   ar
    10    10    11   ar
    11    11    12    1
    12    12    13   ar
    13    13    14   ar
    14    14    15   ar
    15    15    16   ar
    16    11    17   ar
    17    17    18   ar
    18    18    19   ar
    19    19    20   ar
    20    20    21   ar
    21    21    22   ar
    22     7    23   ar
    23    23     1    1
    24    23     4   ar
    25    22     6   ar
    26    22     9   ar
    27    16    12   ar
    28    21    17   ar
    29     1    24    1
    30     1    25    1
    31     2    26    1
    32     3    27    1
    33     5    28    1
    34    10    29    1
    35    13    30    1
    36    14    31    1
    37    15    32    1
    38    16    33    1
    39    18    34    1
    40    20    35    1
