@<TRIPOS>MOLECULE
*****
 31 33 0 0 0
SMALL
GASTEIGER

@<TRIPOS>ATOM
      1 C          -4.7092   -0.6048   -1.0101 C.3     1  UNL1        0.0004
      2 N          -4.0168   -0.0795    0.1654 N.pl3   1  UNL1       -0.3360
      3 C          -4.7441    0.9368    0.9237 C.3     1  UNL1        0.0004
      4 C          -2.6165   -0.0571    0.1704 C.ar    1  UNL1        0.0292
      5 C          -1.8822    0.7037    1.0971 C.ar    1  UNL1       -0.0400
      6 C          -0.4778    0.7167    1.1153 C.ar    1  UNL1       -0.0492
      7 C          -1.8535   -0.8303   -0.7225 C.ar    1  UNL1       -0.0400
      8 C          -0.4488   -0.8249   -0.7127 C.ar    1  UNL1       -0.0492
      9 C           0.2560   -0.0466    0.2066 C.ar    1  UNL1        0.0210
     10 C           1.7161   -0.0300    0.2291 C.ar    1  UNL1        0.1838
     11 N           2.4829   -0.7442   -0.6088 N.ar    1  UNL1       -0.1437
     12 N           3.7306   -0.4151   -0.2170 N.ar    1  UNL1       -0.2036
     13 C           4.9469   -0.8540   -0.7262 C.ar    1  UNL1        0.0344
     14 C           6.0936   -0.4066   -0.1969 C.ar    1  UNL1       -0.0252
     15 C           5.9341    0.5562    0.9302 C.ar    1  UNL1        0.0329
     16 N           4.8139    0.9843    1.4268 N.ar    1  UNL1       -0.2190
     17 C           3.6778    0.4916    0.8456 C.ar    1  UNL1        0.2533
     18 N           2.4193    0.7361    1.1283 N.ar    1  UNL1       -0.1892
     19 H          -4.4864   -1.6666   -1.1602 H       1  UNL1        0.0428
     20 H          -4.4416   -0.0406   -1.9104 H       1  UNL1        0.0428
     21 H          -5.7969   -0.5414   -0.8924 H       1  UNL1        0.0428
     22 H          -4.5208    0.8692    1.9938 H       1  UNL1        0.0428
     23 H          -5.8276    0.7978    0.8355 H       1  UNL1        0.0428
     24 H          -4.5092    1.9433    0.5601 H       1  UNL1        0.0428
     25 H          -2.3817    1.3149    1.8424 H       1  UNL1        0.0636
     26 H           0.0338    1.3305    1.8547 H       1  UNL1        0.0625
     27 H          -2.3313   -1.4711   -1.4570 H       1  UNL1        0.0636
     28 H           0.0838   -1.4430   -1.4324 H       1  UNL1        0.0625
     29 H           4.8953   -1.5552   -1.5480 H       1  UNL1        0.0832
     30 H           7.0809   -0.6933   -0.5285 H       1  UNL1        0.0648
     31 H           6.8796    0.9234    1.3641 H       1  UNL1        0.0831
@<TRIPOS>BOND
     1     1     2    1
     2     2     3    1
     3     2     4    1
     4     4     5   ar
     5     5     6   ar
     6     4     7   ar
     7     7     8   ar
     8     8     9   ar
     9     9    10    1
    10    10    11   ar
    11    11    12   ar
    12    12    13   ar
    13    13    14   ar
    14    14    15   ar
    15    15    16   ar
    16    16    17   ar
    17    17    18   ar
    18     9     6   ar
    19    18    10   ar
    20    17    12   ar
    21     1    19    1
    22     1    20    1
    23     1    21    1
    24     3    22    1
    25     3    23    1
    26     3    24    1
    27     5    25    1
    28     6    26    1
    29     7    27    1
    30     8    28    1
    31    13    29    1
    32    14    30    1
    33    15    31    1
