@<TRIPOS>MOLECULE
*****
 36 38 0 0 0
SMALL
GASTEIGER

@<TRIPOS>ATOM
      1 C           5.9100    0.4602   -0.0804 C.3     1  UNL1        0.0004
      2 N           4.8772   -0.4850    0.3404 N.pl3   1  UNL1       -0.3360
      3 C           5.2484   -1.8973    0.2693 C.3     1  UNL1        0.0004
      4 C           3.5306   -0.1292    0.1933 C.ar    1  UNL1        0.0293
      5 C           2.4914   -1.0714    0.3097 C.ar    1  UNL1       -0.0386
      6 C           1.1383   -0.7218    0.1801 C.ar    1  UNL1       -0.0328
      7 C           3.1291    1.2005   -0.0350 C.ar    1  UNL1       -0.0386
      8 C           1.7813    1.5693   -0.1675 C.ar    1  UNL1       -0.0328
      9 C           0.7795    0.6043   -0.0626 C.ar    1  UNL1        0.0863
     10 N          -0.5856    0.9672   -0.1952 N.ar    1  UNL1       -0.1497
     11 N          -0.9724    2.2483   -0.4309 N.ar    1  UNL1       -0.1549
     12 C          -2.2995    2.1294   -0.4803 C.ar    1  UNL1        0.0776
     13 C          -2.6961    0.7896   -0.2780 C.ar    1  UNL1        0.1130
     14 C          -4.0403    0.2096   -0.2520 C.ar    1  UNL1        0.0037
     15 C          -4.2161   -1.1648   -0.0241 C.ar    1  UNL1       -0.0525
     16 C          -5.4936   -1.7308    0.0033 C.ar    1  UNL1       -0.0611
     17 C          -6.6145   -0.9299   -0.1970 C.ar    1  UNL1       -0.0617
     18 C          -6.4591    0.4353   -0.4245 C.ar    1  UNL1       -0.0611
     19 C          -5.1807    1.0027   -0.4521 C.ar    1  UNL1       -0.0525
     20 N          -1.5868    0.0540   -0.0974 N.ar    1  UNL1       -0.1471
     21 H           5.8651    1.3841    0.5062 H       1  UNL1        0.0428
     22 H           6.9136    0.0513    0.0828 H       1  UNL1        0.0428
     23 H           5.8187    0.6949   -1.1467 H       1  UNL1        0.0428
     24 H           6.3296   -2.0307    0.3881 H       1  UNL1        0.0428
     25 H           4.7860   -2.4702    1.0802 H       1  UNL1        0.0428
     26 H           4.9666   -2.3308   -0.6966 H       1  UNL1        0.0428
     27 H           2.7052   -2.1168    0.5108 H       1  UNL1        0.0637
     28 H           0.3841   -1.5001    0.2772 H       1  UNL1        0.0640
     29 H           3.8604    1.9992   -0.1141 H       1  UNL1        0.0637
     30 H           1.5390    2.6147   -0.3473 H       1  UNL1        0.0640
     31 H          -2.9023    3.0083   -0.6582 H       1  UNL1        0.0870
     32 H          -3.3535   -1.8096    0.1352 H       1  UNL1        0.0624
     33 H          -5.6091   -2.7969    0.1814 H       1  UNL1        0.0618
     34 H          -7.6083   -1.3698   -0.1757 H       1  UNL1        0.0618
     35 H          -7.3343    1.0612   -0.5810 H       1  UNL1        0.0618
     36 H          -5.1015    2.0710   -0.6326 H       1  UNL1        0.0624
@<TRIPOS>BOND
     1     1     2    1
     2     2     3    1
     3     2     4    1
     4     4     5   ar
     5     5     6   ar
     6     4     7   ar
     7     7     8   ar
     8     8     9   ar
     9     9    10    1
    10    10    11   ar
    11    11    12   ar
    12    12    13   ar
    13    13    14    1
    14    14    15   ar
    15    15    16   ar
    16    16    17   ar
    17    17    18   ar
    18    18    19   ar
    19    13    20   ar
    20     9     6   ar
    21    20    10   ar
    22    19    14   ar
    23     1    21    1
    24     1    22    1
    25     1    23    1
    26     3    24    1
    27     3    25    1
    28     3    26    1
    29     5    27    1
    30     6    28    1
    31     7    29    1
    32     8    30    1
    33    12    31    1
    34    15    32    1
    35    16    33    1
    36    17    34    1
    37    18    35    1
    38    19    36    1
