@<TRIPOS>MOLECULE
*****
 38 39 0 0 0
SMALL
GASTEIGER

@<TRIPOS>ATOM
      1 C          -4.6272    1.5004   -0.1252 C.3     1  UNL1        0.0004
      2 N          -3.9783    0.1907   -0.1505 N.pl3   1  UNL1       -0.3360
      3 C          -4.7698   -0.9159    0.3842 C.3     1  UNL1        0.0004
      4 C          -2.5808    0.1214   -0.0879 C.ar    1  UNL1        0.0297
      5 C          -1.7648    1.2398   -0.3217 C.ar    1  UNL1       -0.0372
      6 C          -0.3544    1.1891   -0.2783 C.ar    1  UNL1       -0.0407
      7 C           0.4216    2.4546   -0.5433 C.3     1  UNL1       -0.0391
      8 C           0.2976   -0.0302   -0.0011 C.ar    1  UNL1       -0.0119
      9 C           1.7678   -0.1066    0.0486 C.ar    1  UNL1       -0.0173
     10 C           2.4546    0.1073    1.2552 C.ar    1  UNL1       -0.0534
     11 C           3.8494    0.0360    1.3076 C.ar    1  UNL1       -0.0510
     12 C           4.5689   -0.2514    0.1458 C.ar    1  UNL1        0.0142
     13 C           6.0423   -0.3256    0.2065 C.2     1  UNL1        0.1502
     14 O           6.7254   -0.5738   -0.7791 O.2     1  UNL1       -0.2957
     15 C           3.9035   -0.4670   -1.0629 C.ar    1  UNL1       -0.0510
     16 C           2.5093   -0.3943   -1.1086 C.ar    1  UNL1       -0.0534
     17 C          -0.4940   -1.1761    0.2205 C.ar    1  UNL1       -0.0407
     18 C           0.1279   -2.5198    0.5058 C.3     1  UNL1       -0.0391
     19 C          -1.9018   -1.0806    0.1677 C.ar    1  UNL1       -0.0372
     20 H          -4.3468    2.0986   -0.9988 H       1  UNL1        0.0428
     21 H          -4.3782    2.0459    0.7917 H       1  UNL1        0.0428
     22 H          -5.7182    1.4054   -0.1662 H       1  UNL1        0.0428
     23 H          -4.5795   -1.8425   -0.1678 H       1  UNL1        0.0428
     24 H          -5.8439   -0.7231    0.2825 H       1  UNL1        0.0428
     25 H          -4.5622   -1.0706    1.4488 H       1  UNL1        0.0428
     26 H          -2.2181    2.1991   -0.5535 H       1  UNL1        0.0639
     27 H           1.0464    2.7089    0.3187 H       1  UNL1        0.0278
     28 H          -0.2440    3.3058   -0.7225 H       1  UNL1        0.0278
     29 H           1.0491    2.3389   -1.4326 H       1  UNL1        0.0278
     30 H           1.8949    0.3315    2.1618 H       1  UNL1        0.0624
     31 H           4.3552    0.2058    2.2543 H       1  UNL1        0.0625
     32 H           6.5036   -0.1450    1.1919 H       1  UNL1        0.1081
     33 H           4.4639   -0.6910   -1.9682 H       1  UNL1        0.0625
     34 H           1.9966   -0.5634   -2.0540 H       1  UNL1        0.0624
     35 H          -0.6335   -3.2902    0.6685 H       1  UNL1        0.0278
     36 H           0.7431   -2.8434   -0.3397 H       1  UNL1        0.0278
     37 H           0.7403   -2.4743    1.4119 H       1  UNL1        0.0278
     38 H          -2.4657   -1.9944    0.3309 H       1  UNL1        0.0639
@<TRIPOS>BOND
     1     1     2    1
     2     2     3    1
     3     2     4    1
     4     4     5   ar
     5     5     6   ar
     6     6     7    1
     7     6     8   ar
     8     8     9    1
     9     9    10   ar
    10    10    11   ar
    11    11    12   ar
    12    12    13    1
    13    13    14    2
    14    12    15   ar
    15    15    16   ar
    16     8    17   ar
    17    17    18    1
    18    17    19   ar
    19    19     4   ar
    20    16     9   ar
    21     1    20    1
    22     1    21    1
    23     1    22    1
    24     3    23    1
    25     3    24    1
    26     3    25    1
    27     5    26    1
    28     7    27    1
    29     7    28    1
    30     7    29    1
    31    10    30    1
    32    11    31    1
    33    13    32    1
    34    15    33    1
    35    16    34    1
    36    18    35    1
    37    18    36    1
    38    18    37    1
    39    19    38    1
