@<TRIPOS>MOLECULE
*****
 35 36 0 0 0
SMALL
GASTEIGER

@<TRIPOS>ATOM
      1 C          -4.5355    0.1190   -1.4601 C.3     1  UNL1        0.0004
      2 N          -3.8991   -0.5190   -0.3089 N.pl3   1  UNL1       -0.3360
      3 C          -4.7551   -0.7080    0.8607 C.3     1  UNL1        0.0004
      4 C          -2.5191   -0.3655   -0.1272 C.ar    1  UNL1        0.0295
      5 C          -1.6672    0.0382   -1.1723 C.ar    1  UNL1       -0.0372
      6 C          -0.2702    0.1886   -1.0185 C.ar    1  UNL1       -0.0410
      7 C           0.5506    0.6257   -2.2034 C.3     1  UNL1       -0.0391
      8 C           0.3245   -0.0944    0.2229 C.ar    1  UNL1       -0.0149
      9 C           1.7693    0.0247    0.4549 C.ar    1  UNL1       -0.0176
     10 C           2.6413   -1.0143    0.0930 C.ar    1  UNL1       -0.0534
     11 C           4.0159   -0.9030    0.3161 C.ar    1  UNL1       -0.0510
     12 C           4.5300    0.2526    0.9079 C.ar    1  UNL1        0.0142
     13 C           5.9811    0.3822    1.1483 C.2     1  UNL1        0.1502
     14 O           6.7753   -0.4983    0.8426 O.2     1  UNL1       -0.2957
     15 C           3.6786    1.2956    1.2784 C.ar    1  UNL1       -0.0510
     16 C           2.3042    1.1778    1.0523 C.ar    1  UNL1       -0.0534
     17 C          -0.5045   -0.5124    1.2698 C.ar    1  UNL1       -0.0520
     18 C          -1.8890   -0.6476    1.0936 C.ar    1  UNL1       -0.0401
     19 H          -5.6191   -0.0450   -1.4586 H       1  UNL1        0.0428
     20 H          -4.1700   -0.3063   -2.4009 H       1  UNL1        0.0428
     21 H          -4.3670    1.2016   -1.4542 H       1  UNL1        0.0428
     22 H          -4.6995    0.1553    1.5330 H       1  UNL1        0.0428
     23 H          -4.4864   -1.6189    1.4065 H       1  UNL1        0.0428
     24 H          -5.8039   -0.8334    0.5689 H       1  UNL1        0.0428
     25 H          -2.0808    0.2434   -2.1556 H       1  UNL1        0.0639
     26 H           1.1844   -0.1968   -2.5495 H       1  UNL1        0.0278
     27 H          -0.0850    0.9320   -3.0411 H       1  UNL1        0.0278
     28 H           1.1750    1.4868   -1.9448 H       1  UNL1        0.0278
     29 H           2.2476   -1.9193   -0.3667 H       1  UNL1        0.0624
     30 H           4.6787   -1.7167    0.0289 H       1  UNL1        0.0625
     31 H           6.3195    1.3195    1.6209 H       1  UNL1        0.1081
     32 H           4.0658    2.1999    1.7402 H       1  UNL1        0.0625
     33 H           1.6428    1.9933    1.3405 H       1  UNL1        0.0624
     34 H          -0.0756   -0.7490    2.2418 H       1  UNL1        0.0624
     35 H          -2.4575   -0.9881    1.9531 H       1  UNL1        0.0636
@<TRIPOS>BOND
     1     1     2    1
     2     2     3    1
     3     2     4    1
     4     4     5   ar
     5     5     6   ar
     6     6     7    1
     7     6     8   ar
     8     8     9    1
     9     9    10   ar
    10    10    11   ar
    11    11    12   ar
    12    12    13    1
    13    13    14    2
    14    12    15   ar
    15    15    16   ar
    16     8    17   ar
    17    17    18   ar
    18    18     4   ar
    19    16     9   ar
    20     1    19    1
    21     1    20    1
    22     1    21    1
    23     3    22    1
    24     3    23    1
    25     3    24    1
    26     5    25    1
    27     7    26    1
    28     7    27    1
    29     7    28    1
    30    10    29    1
    31    11    30    1
    32    13    31    1
    33    15    32    1
    34    16    33    1
    35    17    34    1
    36    18    35    1
