@<TRIPOS>MOLECULE
*****
 38 39 0 0 0
SMALL
GASTEIGER

@<TRIPOS>ATOM
      1 C           4.6772   -1.4255    0.3729 C.3     1  UNL1        0.0004
      2 N           4.0843   -0.0967    0.2305 N.pl3   1  UNL1       -0.3360
      3 C           4.8868    0.8765   -0.5078 C.3     1  UNL1        0.0004
      4 C           2.6891    0.0245    0.2251 C.ar    1  UNL1        0.0295
      5 C           1.8482   -0.9886    0.7230 C.ar    1  UNL1       -0.0372
      6 C           0.4389   -0.8860    0.7404 C.ar    1  UNL1       -0.0410
      7 C          -0.3695   -2.0265    1.3011 C.3     1  UNL1       -0.0391
      8 C          -0.1766    0.2814    0.2572 C.ar    1  UNL1       -0.0146
      9 C          -1.6376    0.4658    0.2545 C.ar    1  UNL1       -0.0147
     10 C          -2.2596    0.9852    1.4056 C.ar    1  UNL1       -0.0531
     11 C          -3.6398    1.1839    1.4527 C.ar    1  UNL1       -0.0509
     12 C          -4.4182    0.8670    0.3412 C.ar    1  UNL1        0.0145
     13 C          -5.8802    1.0729    0.3751 C.2     1  UNL1        0.1502
     14 O          -6.4552    1.5182    1.3603 O.2     1  UNL1       -0.2957
     15 C          -3.8249    0.3534   -0.8153 C.ar    1  UNL1       -0.0480
     16 C          -2.4348    0.1472   -0.8698 C.ar    1  UNL1       -0.0421
     17 C          -1.8235   -0.4024   -2.1324 C.3     1  UNL1       -0.0391
     18 C           0.6442    1.3087   -0.2218 C.ar    1  UNL1       -0.0520
     19 C           2.0402    1.1806   -0.2326 C.ar    1  UNL1       -0.0401
     20 H           4.4442   -1.8605    1.3506 H       1  UNL1        0.0428
     21 H           4.3343   -2.0977   -0.4215 H       1  UNL1        0.0428
     22 H           5.7709   -1.3823    0.3175 H       1  UNL1        0.0428
     23 H           5.9579    0.6713   -0.3996 H       1  UNL1        0.0428
     24 H           4.6513    0.8508   -1.5774 H       1  UNL1        0.0428
     25 H           4.7367    1.8902   -0.1209 H       1  UNL1        0.0428
     26 H           2.2825   -1.8992    1.1259 H       1  UNL1        0.0639
     27 H          -1.1122   -2.3681    0.5733 H       1  UNL1        0.0278
     28 H           0.2633   -2.8873    1.5422 H       1  UNL1        0.0278
     29 H          -0.8734   -1.7176    2.2223 H       1  UNL1        0.0278
     30 H          -1.6587    1.2380    2.2782 H       1  UNL1        0.0624
     31 H          -4.0996    1.5852    2.3532 H       1  UNL1        0.0625
     32 H          -6.4361    0.8035   -0.5385 H       1  UNL1        0.1081
     33 H          -4.4392    0.1108   -1.6796 H       1  UNL1        0.0627
     34 H          -1.1517    0.3350   -2.5826 H       1  UNL1        0.0278
     35 H          -2.5909   -0.6458   -2.8751 H       1  UNL1        0.0278
     36 H          -1.2714   -1.3241   -1.9236 H       1  UNL1        0.0278
     37 H           0.1999    2.2312   -0.5910 H       1  UNL1        0.0624
     38 H           2.6032    2.0272   -0.6126 H       1  UNL1        0.0636
@<TRIPOS>BOND
     1     1     2    1
     2     2     3    1
     3     2     4    1
     4     4     5   ar
     5     5     6   ar
     6     6     7    1
     7     6     8   ar
     8     8     9    1
     9     9    10   ar
    10    10    11   ar
    11    11    12   ar
    12    12    13    1
    13    13    14    2
    14    12    15   ar
    15    15    16   ar
    16    16    17    1
    17     8    18   ar
    18    18    19   ar
    19    19     4   ar
    20    16     9   ar
    21     1    20    1
    22     1    21    1
    23     1    22    1
    24     3    23    1
    25     3    24    1
    26     3    25    1
    27     5    26    1
    28     7    27    1
    29     7    28    1
    30     7    29    1
    31    10    30    1
    32    11    31    1
    33    13    32    1
    34    15    33    1
    35    17    34    1
    36    17    35    1
    37    17    36    1
    38    18    37    1
    39    19    38    1
