@<TRIPOS>MOLECULE
*****
 36 38 0 0 0
SMALL
GASTEIGER

@<TRIPOS>ATOM
      1 C          -4.8201   -1.0111   -1.0495 C.3     1  UNL1        0.0004
      2 N          -4.0167    0.0952   -0.5317 N.pl3   1  UNL1       -0.3360
      3 C          -4.6866    0.9583    0.4398 C.3     1  UNL1        0.0004
      4 C          -2.6260   -0.0515   -0.4601 C.ar    1  UNL1        0.0295
      5 C          -1.8133    0.8478    0.2488 C.ar    1  UNL1       -0.0369
      6 C          -0.4091    0.7214    0.3069 C.ar    1  UNL1       -0.0376
      7 C           0.3993    1.7129    1.1103 C.3     1  UNL1       -0.0230
      8 C           1.7726    1.9541    0.4810 C.3     1  UNL1       -0.0231
      9 C           0.2484   -0.3452   -0.3333 C.ar    1  UNL1       -0.0143
     10 C           1.7227   -0.4690   -0.2263 C.ar    1  UNL1       -0.0144
     11 C           2.4825    0.6527    0.1863 C.ar    1  UNL1       -0.0387
     12 C           3.8826    0.5845    0.2717 C.ar    1  UNL1       -0.0478
     13 C           4.5367   -0.6122   -0.0195 C.ar    1  UNL1        0.0145
     14 C           6.0083   -0.6788    0.0810 C.2     1  UNL1        0.1502
     15 O           6.6340   -1.7039   -0.1588 O.2     1  UNL1       -0.2957
     16 C           3.8068   -1.7370   -0.3992 C.ar    1  UNL1       -0.0509
     17 C           2.4135   -1.6629   -0.5002 C.ar    1  UNL1       -0.0531
     18 C          -0.5485   -1.2282   -1.0677 C.ar    1  UNL1       -0.0520
     19 C          -1.9450   -1.0782   -1.1311 C.ar    1  UNL1       -0.0401
     20 H          -4.6934   -1.9107   -0.4371 H       1  UNL1        0.0428
     21 H          -5.8868   -0.7600   -1.0517 H       1  UNL1        0.0428
     22 H          -4.5641   -1.2341   -2.0909 H       1  UNL1        0.0428
     23 H          -4.4986    0.6188    1.4645 H       1  UNL1        0.0428
     24 H          -5.7718    0.9617    0.2875 H       1  UNL1        0.0428
     25 H          -4.3666    2.0001    0.3316 H       1  UNL1        0.0428
     26 H          -2.2575    1.6871    0.7754 H       1  UNL1        0.0639
     27 H          -0.1276    2.6715    1.1837 H       1  UNL1        0.0317
     28 H           0.5116    1.3176    2.1280 H       1  UNL1        0.0317
     29 H           1.6672    2.5068   -0.4613 H       1  UNL1        0.0316
     30 H           2.3695    2.5719    1.1622 H       1  UNL1        0.0316
     31 H           4.4488    1.4644    0.5669 H       1  UNL1        0.0627
     32 H           6.5230    0.2478    0.3857 H       1  UNL1        0.1081
     33 H           4.3150   -2.6740   -0.6181 H       1  UNL1        0.0625
     34 H           1.8790   -2.5652   -0.7859 H       1  UNL1        0.0624
     35 H          -0.1072   -2.0486   -1.6268 H       1  UNL1        0.0624
     36 H          -2.4825   -1.8037   -1.7340 H       1  UNL1        0.0636
@<TRIPOS>BOND
     1     1     2    1
     2     2     3    1
     3     2     4    1
     4     4     5   ar
     5     5     6   ar
     6     6     7    1
     7     7     8    1
     8     6     9   ar
     9     9    10    1
    10    10    11   ar
    11    11    12   ar
    12    12    13   ar
    13    13    14    1
    14    14    15    2
    15    13    16   ar
    16    16    17   ar
    17     9    18   ar
    18    18    19   ar
    19    19     4   ar
    20    11     8    1
    21    17    10   ar
    22     1    20    1
    23     1    21    1
    24     1    22    1
    25     3    23    1
    26     3    24    1
    27     3    25    1
    28     5    26    1
    29     7    27    1
    30     7    28    1
    31     8    29    1
    32     8    30    1
    33    12    31    1
    34    14    32    1
    35    16    33    1
    36    17    34    1
    37    18    35    1
    38    19    36    1
