@<TRIPOS>MOLECULE
*****
 41 43 0 0 0
SMALL
GASTEIGER

@<TRIPOS>ATOM
      1 C          -4.2893    1.9451   -2.7284 C.3     1  UNL1        0.0004
      2 N          -3.8296    0.7723   -1.9863 N.pl3   1  UNL1       -0.3360
      3 C          -4.8577    0.0677   -1.2225 C.3     1  UNL1        0.0004
      4 C          -2.5008    0.7350   -1.5380 C.ar    1  UNL1        0.0295
      5 C          -1.5033    1.5719   -2.0988 C.ar    1  UNL1       -0.0401
      6 C          -0.1605    1.5501   -1.6858 C.ar    1  UNL1       -0.0520
      7 C           0.2114    0.6664   -0.6949 C.ar    1  UNL1       -0.0135
      8 C           1.4972    0.4215   -0.0798 C.ar    1  UNL1       -0.0135
      9 C           2.7291    1.0131   -0.3055 C.ar    1  UNL1       -0.0530
     10 C           3.8313    0.5789    0.4430 C.ar    1  UNL1       -0.0497
     11 C           3.6964   -0.4410    1.4097 C.ar    1  UNL1        0.0307
     12 C           4.8484   -0.9237    2.2210 C.2     1  UNL1        0.2357
     13 C           6.1517   -0.3311    2.0086 C.1     1  UNL1       -0.0269
     14 C           7.2424    0.1472    1.8481 C.1     1  UNL1       -0.1108
     15 O           4.7257   -1.8054    3.0609 O.2     1  UNL1       -0.2775
     16 C           2.4440   -1.0352    1.6317 C.ar    1  UNL1       -0.0457
     17 C           1.3571   -0.5984    0.8850 C.ar    1  UNL1       -0.0290
     18 C          -0.0957   -1.0804    0.9365 C.3     1  UNL1        0.0163
     19 C          -0.7099   -0.8261    2.3177 C.3     1  UNL1       -0.0517
     20 C          -0.1967   -2.5610    0.5527 C.3     1  UNL1       -0.0517
     21 C          -0.7456   -0.1907   -0.1263 C.ar    1  UNL1       -0.0279
     22 C          -2.0768   -0.1650   -0.5407 C.ar    1  UNL1       -0.0361
     23 H          -3.7646    2.0393   -3.6851 H       1  UNL1        0.0428
     24 H          -4.1556    2.8608   -2.1418 H       1  UNL1        0.0428
     25 H          -5.3536    1.8670   -2.9777 H       1  UNL1        0.0428
     26 H          -4.6538   -1.0076   -1.1800 H       1  UNL1        0.0428
     27 H          -5.8409    0.1663   -1.6964 H       1  UNL1        0.0428
     28 H          -4.9382    0.4691   -0.2063 H       1  UNL1        0.0428
     29 H          -1.7516    2.2701   -2.8927 H       1  UNL1        0.0636
     30 H           0.5591    2.2155   -2.1499 H       1  UNL1        0.0624
     31 H           2.8469    1.7981   -1.0457 H       1  UNL1        0.0624
     32 H           4.7922    1.0517    0.2559 H       1  UNL1        0.0625
     33 H           8.2152    0.5615    1.7170 H       1  UNL1        0.1233
     34 H           2.3255   -1.8219    2.3725 H       1  UNL1        0.0628
     35 H          -0.1995   -1.4072    3.0945 H       1  UNL1        0.0241
     36 H          -1.7700   -1.1039    2.3405 H       1  UNL1        0.0241
     37 H          -0.6424    0.2311    2.6023 H       1  UNL1        0.0241
     38 H           0.3306   -3.1968    1.2732 H       1  UNL1        0.0241
     39 H          -1.2402   -2.8946    0.5195 H       1  UNL1        0.0241
     40 H           0.2401   -2.7538   -0.4349 H       1  UNL1        0.0241
     41 H          -2.7680   -0.8561   -0.0727 H       1  UNL1        0.0639
@<TRIPOS>BOND
     1     1     2    1
     2     2     3    1
     3     2     4    1
     4     4     5   ar
     5     5     6   ar
     6     6     7   ar
     7     7     8    1
     8     8     9   ar
     9     9    10   ar
    10    10    11   ar
    11    11    12    1
    12    12    13    1
    13    13    14    3
    14    12    15    2
    15    11    16   ar
    16     8    17   ar
    17    17    18    1
    18    18    19    1
    19    18    20    1
    20     7    21   ar
    21    21    22   ar
    22    22     4   ar
    23    17    16   ar
    24    21    18    1
    25     1    23    1
    26     1    24    1
    27     1    25    1
    28     3    26    1
    29     3    27    1
    30     3    28    1
    31     5    29    1
    32     6    30    1
    33     9    31    1
    34    10    32    1
    35    14    33    1
    36    16    34    1
    37    19    35    1
    38    19    36    1
    39    19    37    1
    40    20    38    1
    41    20    39    1
    42    20    40    1
    43    22    41    1
