@<TRIPOS>MOLECULE
*****
 41 43 0 0 0
SMALL
GASTEIGER

@<TRIPOS>ATOM
      1 C          -5.1912    1.5572   -0.0045 C.3     1  UNL1        0.0004
      2 N          -4.2908    0.4662   -0.3736 N.pl3   1  UNL1       -0.3360
      3 C          -4.8590   -0.8774   -0.2830 C.3     1  UNL1        0.0004
      4 C          -2.9106    0.6353   -0.1852 C.ar    1  UNL1        0.0295
      5 C          -2.3349    1.9190   -0.0095 C.ar    1  UNL1       -0.0401
      6 C          -0.9562    2.1253    0.1662 C.ar    1  UNL1       -0.0520
      7 C          -0.1179    1.0306    0.1573 C.ar    1  UNL1       -0.0135
      8 C           1.3173    0.9371    0.3082 C.ar    1  UNL1       -0.0136
      9 C           2.2657    1.9224    0.5194 C.ar    1  UNL1       -0.0532
     10 C           3.6102    1.5452    0.6320 C.ar    1  UNL1       -0.0540
     11 C           4.0071    0.1956    0.5246 C.ar    1  UNL1       -0.0253
     12 C           5.4101   -0.2170    0.6713 C.2     1  UNL1       -0.0617
     13 C           6.4589    0.4907    0.2320 C.2     1  UNL1       -0.0981
     14 C           3.0348   -0.7954    0.3258 C.ar    1  UNL1       -0.0500
     15 C           1.7019   -0.4166    0.2138 C.ar    1  UNL1       -0.0291
     16 C           0.4715   -1.2988   -0.0145 C.3     1  UNL1        0.0163
     17 C           0.5628   -2.0308   -1.3582 C.3     1  UNL1       -0.0517
     18 C           0.2839   -2.2891    1.1405 C.3     1  UNL1       -0.0517
     19 C          -0.6494   -0.2561   -0.0313 C.ar    1  UNL1       -0.0279
     20 C          -2.0185   -0.4549   -0.2056 C.ar    1  UNL1       -0.0361
     21 H          -6.2390    1.2817   -0.1697 H       1  UNL1        0.0428
     22 H          -5.0147    2.4434   -0.6232 H       1  UNL1        0.0428
     23 H          -5.0826    1.8177    1.0542 H       1  UNL1        0.0428
     24 H          -5.9412   -0.8631   -0.4553 H       1  UNL1        0.0428
     25 H          -4.6878   -1.3119    0.7081 H       1  UNL1        0.0428
     26 H          -4.4434   -1.5370   -1.0524 H       1  UNL1        0.0428
     27 H          -2.9577    2.8086   -0.0112 H       1  UNL1        0.0636
     28 H          -0.5709    3.1302    0.2990 H       1  UNL1        0.0624
     29 H           1.9842    2.9665    0.6031 H       1  UNL1        0.0624
     30 H           4.3510    2.3198    0.8170 H       1  UNL1        0.0624
     31 H           5.5804   -1.1762    1.1550 H       1  UNL1        0.0618
     32 H           6.3483    1.4391   -0.2834 H       1  UNL1        0.0535
     33 H           7.4687    0.1162    0.3677 H       1  UNL1        0.0535
     34 H           3.3138   -1.8420    0.2503 H       1  UNL1        0.0627
     35 H           0.6968   -1.3308   -2.1921 H       1  UNL1        0.0241
     36 H           1.4090   -2.7272   -1.3766 H       1  UNL1        0.0241
     37 H          -0.3458   -2.6097   -1.5600 H       1  UNL1        0.0241
     38 H          -0.6340   -2.8756    1.0183 H       1  UNL1        0.0241
     39 H           0.2176   -1.7753    2.1074 H       1  UNL1        0.0241
     40 H           1.1208   -2.9943    1.2014 H       1  UNL1        0.0241
     41 H          -2.3692   -1.4688   -0.3577 H       1  UNL1        0.0639
@<TRIPOS>BOND
     1     1     2    1
     2     2     3    1
     3     2     4    1
     4     4     5   ar
     5     5     6   ar
     6     6     7   ar
     7     7     8    1
     8     8     9   ar
     9     9    10   ar
    10    10    11   ar
    11    11    12    1
    12    12    13    2
    13    11    14   ar
    14     8    15   ar
    15    15    16    1
    16    16    17    1
    17    16    18    1
    18     7    19   ar
    19    19    20   ar
    20    20     4   ar
    21    15    14   ar
    22    19    16    1
    23     1    21    1
    24     1    22    1
    25     1    23    1
    26     3    24    1
    27     3    25    1
    28     3    26    1
    29     5    27    1
    30     6    28    1
    31     9    29    1
    32    10    30    1
    33    12    31    1
    34    13    32    1
    35    13    33    1
    36    14    34    1
    37    17    35    1
    38    17    36    1
    39    17    37    1
    40    18    38    1
    41    18    39    1
    42    18    40    1
    43    20    41    1
