@<TRIPOS>MOLECULE
*****
 39 41 0 0 0
SMALL
GASTEIGER

@<TRIPOS>ATOM
      1 C          -5.0129    0.8625   -0.3544 C.3     1  UNL1        0.0004
      2 N          -3.9495   -0.1080   -0.6081 N.pl3   1  UNL1       -0.3360
      3 C          -4.3208   -1.5106   -0.4285 C.3     1  UNL1        0.0004
      4 C          -2.6158    0.2724   -0.3976 C.ar    1  UNL1        0.0295
      5 C          -2.2412    1.6317   -0.2512 C.ar    1  UNL1       -0.0401
      6 C          -0.9129    2.0458   -0.0550 C.ar    1  UNL1       -0.0520
      7 C           0.0785    1.0884   -0.0132 C.ar    1  UNL1       -0.0135
      8 C           1.5078    1.2154    0.1682 C.ar    1  UNL1       -0.0135
      9 C           2.2911    2.3426    0.3619 C.ar    1  UNL1       -0.0531
     10 C           3.6718    2.1783    0.5116 C.ar    1  UNL1       -0.0509
     11 C           4.2487    0.8954    0.4656 C.ar    1  UNL1        0.0145
     12 C           5.7091    0.7402    0.6254 C.2     1  UNL1        0.1502
     13 O           6.4533    1.6965    0.8019 O.2     1  UNL1       -0.2957
     14 C           3.4625   -0.2453    0.2702 C.ar    1  UNL1       -0.0469
     15 C           2.0922   -0.0713    0.1229 C.ar    1  UNL1       -0.0290
     16 C           1.0094   -1.1321   -0.1012 C.3     1  UNL1        0.0163
     17 C           1.2392   -1.8796   -1.4196 C.3     1  UNL1       -0.0517
     18 C           0.9436   -2.1066    1.0802 C.3     1  UNL1       -0.0517
     19 C          -0.2515   -0.2678   -0.1713 C.ar    1  UNL1       -0.0279
     20 C          -1.5716   -0.6729   -0.3656 C.ar    1  UNL1       -0.0361
     21 H          -5.0023    1.1951    0.6894 H       1  UNL1        0.0428
     22 H          -6.0004    0.4309   -0.5533 H       1  UNL1        0.0428
     23 H          -4.9266    1.7284   -1.0195 H       1  UNL1        0.0428
     24 H          -5.3917   -1.6644   -0.6033 H       1  UNL1        0.0428
     25 H          -4.1011   -1.8493    0.5900 H       1  UNL1        0.0428
     26 H          -3.8053   -2.1529   -1.1505 H       1  UNL1        0.0428
     27 H          -2.9889    2.4185   -0.2898 H       1  UNL1        0.0636
     28 H          -0.6854    3.1006    0.0542 H       1  UNL1        0.0624
     29 H           1.8531    3.3348    0.3981 H       1  UNL1        0.0624
     30 H           4.3028    3.0523    0.6645 H       1  UNL1        0.0625
     31 H           6.1020   -0.2893    0.5781 H       1  UNL1        0.1081
     32 H           3.9010   -1.2369    0.2334 H       1  UNL1        0.0628
     33 H           1.2879   -1.1910   -2.2721 H       1  UNL1        0.0241
     34 H           0.4310   -2.5923   -1.6206 H       1  UNL1        0.0241
     35 H           2.1791   -2.4431   -1.4002 H       1  UNL1        0.0241
     36 H           0.7801   -1.5815    2.0293 H       1  UNL1        0.0241
     37 H           0.1254   -2.8259    0.9592 H       1  UNL1        0.0241
     38 H           1.8738   -2.6780    1.1785 H       1  UNL1        0.0241
     39 H          -1.7655   -1.7312   -0.4952 H       1  UNL1        0.0639
@<TRIPOS>BOND
     1     1     2    1
     2     2     3    1
     3     2     4    1
     4     4     5   ar
     5     5     6   ar
     6     6     7   ar
     7     7     8    1
     8     8     9   ar
     9     9    10   ar
    10    10    11   ar
    11    11    12    1
    12    12    13    2
    13    11    14   ar
    14     8    15   ar
    15    15    16    1
    16    16    17    1
    17    16    18    1
    18     7    19   ar
    19    19    20   ar
    20    20     4   ar
    21    15    14   ar
    22    19    16    1
    23     1    21    1
    24     1    22    1
    25     1    23    1
    26     3    24    1
    27     3    25    1
    28     3    26    1
    29     5    27    1
    30     6    28    1
    31     9    29    1
    32    10    30    1
    33    12    31    1
    34    14    32    1
    35    17    33    1
    36    17    34    1
    37    17    35    1
    38    18    36    1
    39    18    37    1
    40    18    38    1
    41    20    39    1
