@<TRIPOS>MOLECULE
*****
 39 41 0 0 0
SMALL
GASTEIGER

@<TRIPOS>ATOM
      1 C          -6.0606    0.4002   -0.2534 C.3     1  UNL1        0.0004
      2 N          -4.7894    0.9030    0.2665 N.pl3   1  UNL1       -0.3360
      3 C          -4.6740    2.3587    0.3464 C.3     1  UNL1        0.0004
      4 C          -3.6325    0.1372    0.0660 C.ar    1  UNL1        0.0313
      5 C          -3.6931   -1.2425   -0.1809 C.ar    1  UNL1       -0.0400
      6 C          -2.5401   -2.0124   -0.3643 C.ar    1  UNL1       -0.0508
      7 C          -1.2766   -1.4163   -0.2948 C.ar    1  UNL1        0.0011
      8 C          -0.0987   -2.1494   -0.4736 C.ar    1  UNL1       -0.0434
      9 C           1.1423   -1.5091   -0.3909 C.ar    1  UNL1        0.0011
     10 C           2.3468   -2.1982   -0.5662 C.ar    1  UNL1       -0.0508
     11 C           3.5663   -1.5200   -0.4738 C.ar    1  UNL1       -0.0400
     12 C           3.6321   -0.1463   -0.1963 C.ar    1  UNL1        0.0313
     13 N           4.8553    0.5341   -0.1214 N.pl3   1  UNL1       -0.3360
     14 C           4.8705    1.9217    0.3402 C.3     1  UNL1        0.0004
     15 C           6.0682   -0.2346    0.1563 C.3     1  UNL1        0.0004
     16 C           2.3931    0.5089   -0.0443 C.ar    1  UNL1       -0.0147
     17 C           1.1582   -0.1329   -0.1275 C.ar    1  UNL1        0.0734
     18 N           0.0265    0.5766    0.0455 N.ar    1  UNL1       -0.2466
     19 C          -1.1663   -0.0439   -0.0348 C.ar    1  UNL1        0.0734
     20 C          -2.3381    0.6902    0.1441 C.ar    1  UNL1       -0.0147
     21 H          -6.8710    1.1193   -0.0882 H       1  UNL1        0.0428
     22 H          -6.3643   -0.5173    0.2614 H       1  UNL1        0.0428
     23 H          -6.0001    0.2151   -1.3317 H       1  UNL1        0.0428
     24 H          -5.6468    2.8210    0.5490 H       1  UNL1        0.0428
     25 H          -4.2971    2.7763   -0.5937 H       1  UNL1        0.0428
     26 H          -4.0221    2.6608    1.1732 H       1  UNL1        0.0428
     27 H          -4.6451   -1.7623   -0.2271 H       1  UNL1        0.0636
     28 H          -2.6417   -3.0778   -0.5551 H       1  UNL1        0.0625
     29 H          -0.1476   -3.2161   -0.6768 H       1  UNL1        0.0631
     30 H           2.3506   -3.2639   -0.7812 H       1  UNL1        0.0625
     31 H           4.4677   -2.1025   -0.6376 H       1  UNL1        0.0636
     32 H           5.8836    2.3381    0.3050 H       1  UNL1        0.0428
     33 H           4.2618    2.5624   -0.3070 H       1  UNL1        0.0428
     34 H           4.5163    1.9968    1.3742 H       1  UNL1        0.0428
     35 H           6.2982   -0.9223   -0.6642 H       1  UNL1        0.0428
     36 H           6.9417    0.4202    0.2527 H       1  UNL1        0.0428
     37 H           5.9735   -0.7962    1.0924 H       1  UNL1        0.0428
     38 H           2.3536    1.5756    0.1550 H       1  UNL1        0.0657
     39 H          -2.2010    1.7476    0.3494 H       1  UNL1        0.0657
@<TRIPOS>BOND
     1     1     2    1
     2     2     3    1
     3     2     4    1
     4     4     5   ar
     5     5     6   ar
     6     6     7   ar
     7     7     8   ar
     8     8     9   ar
     9     9    10   ar
    10    10    11   ar
    11    11    12   ar
    12    12    13    1
    13    13    14    1
    14    13    15    1
    15    12    16   ar
    16     9    17   ar
    17    17    18   ar
    18     7    19   ar
    19    19    20   ar
    20    20     4   ar
    21    17    16   ar
    22    19    18   ar
    23     1    21    1
    24     1    22    1
    25     1    23    1
    26     3    24    1
    27     3    25    1
    28     3    26    1
    29     5    27    1
    30     6    28    1
    31     8    29    1
    32    10    30    1
    33    11    31    1
    34    14    32    1
    35    14    33    1
    36    14    34    1
    37    15    35    1
    38    15    36    1
    39    15    37    1
    40    16    38    1
    41    20    39    1
