@<TRIPOS>MOLECULE
*****
 32 37 0 0 0
SMALL
GASTEIGER

@<TRIPOS>ATOM
      1 SI          5.7300   -0.4533   -0.3457 Si      1  UNL1        0.0000
      2 C           5.6341    0.9889    0.9799 C.2     1  UNL1        0.0000
      3 C           4.3598    1.3500    1.2550 C.2     1  UNL1        0.0000
      4 C           3.4543    0.5724    0.4968 C.ar    1  UNL1        0.0000
      5 N           2.0883    0.6535    0.5096 N.ar    1  UNL1        0.0000
      6 C           1.7080   -0.2953   -0.3826 C.ar    1  UNL1        0.0000
      7 C           0.4638   -0.6610   -0.7765 C.ar    1  UNL1        0.0000
      8 N          -0.7337   -0.1883   -0.3952 N.ar    1  UNL1        0.0000
      9 C          -1.6672   -0.9221   -1.1145 C.ar    1  UNL1        0.0000
     10 C          -1.0057   -1.8445   -1.9350 C.ar    1  UNL1        0.0000
     11 C           0.3799   -1.6559   -1.6978 C.ar    1  UNL1        0.0000
     12 S           2.0142   -2.1013   -2.0340 S.2     1  UNL1        0.0000
     13 C           2.7532   -0.9745   -0.9615 C.ar    1  UNL1        0.0000
     14 C           3.8874   -0.4068   -0.3865 C.ar    1  UNL1        0.0000
     15 C          -3.0742   -0.6880   -0.9630 C.ar    1  UNL1        0.0000
     16 S          -4.3188   -1.5496   -1.8150 S.2     1  UNL1        0.0000
     17 C          -5.6130   -0.6646   -1.0578 C.ar    1  UNL1        0.0000
     18 C          -5.0563    0.2257   -0.2107 C.ar    1  UNL1        0.0000
     19 C          -5.4259    1.2287    0.6981 C.ar    1  UNL1        0.0000
     20 C          -4.2160    1.7193    1.2065 C.ar    1  UNL1        0.0000
     21 O          -3.0900    1.1035    0.6897 O.2     1  UNL1        0.0000
     22 C          -3.6834    0.2129   -0.1595 C.ar    1  UNL1        0.0000
     23 H           6.4149    0.0452   -1.5651 H       1  UNL1        0.0000
     24 H           6.3310   -1.6574    0.2818 H       1  UNL1        0.0000
     25 H           6.5471    1.3886    1.3901 H       1  UNL1        0.0000
     26 H           4.0721    2.1233    1.9551 H       1  UNL1        0.0000
     27 H           1.4839    1.2629    1.0440 H       1  UNL1        0.0000
     28 H          -0.9177    0.5476    0.2751 H       1  UNL1        0.0000
     29 H          -1.4591   -2.5557   -2.6116 H       1  UNL1        0.0000
     30 H          -6.6479   -0.8678   -1.2928 H       1  UNL1        0.0000
     31 H          -6.4147    1.5705    0.9682 H       1  UNL1        0.0000
     32 H          -3.9987    2.4934    1.9311 H       1  UNL1        0.0000
@<TRIPOS>BOND
     1     1     2    1
     2     2     3    2
     3     3     4    1
     4     4     5   ar
     5     5     6   ar
     6     6     7   ar
     7     7     8   ar
     8     8     9   ar
     9     9    10   ar
    10    10    11   ar
    11    11    12   ar
    12    12    13   ar
    13    13    14   ar
    14     9    15    1
    15    15    16   ar
    16    16    17   ar
    17    17    18   ar
    18    18    19   ar
    19    19    20   ar
    20    20    21   ar
    21    21    22   ar
    22    14     1    1
    23    22    15   ar
    24    14     4   ar
    25    22    18   ar
    26    13     6   ar
    27    11     7   ar
    28     1    23    1
    29     1    24    1
    30     2    25    1
    31     3    26    1
    32     5    27    1
    33     8    28    1
    34    10    29    1
    35    17    30    1
    36    19    31    1
    37    20    32    1
