@<TRIPOS>MOLECULE
*****
 32 34 0 0 0
SMALL
GASTEIGER

@<TRIPOS>ATOM
      1 C          -4.6367    0.1886   -1.2174 C.3     1  UNL1        0.0004
      2 N          -3.7511    0.3557   -0.0656 N.pl3   1  UNL1       -0.3360
      3 C          -4.3882    0.1979    1.2417 C.3     1  UNL1        0.0004
      4 C          -2.3967    0.0238   -0.1954 C.ar    1  UNL1        0.0292
      5 C          -1.5339   -0.0289    0.9141 C.ar    1  UNL1       -0.0400
      6 C          -0.1696   -0.3379    0.7930 C.ar    1  UNL1       -0.0493
      7 C           0.3933   -0.5884   -0.4580 C.ar    1  UNL1        0.0197
      8 C          -0.4407   -0.5505   -1.5743 C.ar    1  UNL1       -0.0493
      9 C          -1.8027   -0.2383   -1.4422 C.ar    1  UNL1       -0.0400
     10 C           1.8073   -0.9131   -0.6198 C.ar    1  UNL1        0.1685
     11 N           2.2832   -1.9381   -1.3081 N.ar    1  UNL1       -0.1285
     12 N           3.6558   -1.9330   -1.2214 N.ar    1  UNL1       -0.1291
     13 C           4.0056   -0.8873   -0.5086 C.ar    1  UNL1        0.1613
     14 N           2.8727   -0.1845   -0.1187 N.ar    1  UNL1       -0.2825
     15 C           2.9337    1.0105    0.6043 C.ar    1  UNL1        0.0132
     16 C           4.1323    1.4972    0.9701 C.ar    1  UNL1       -0.0450
     17 C           5.3345    0.7646    0.6023 C.ar    1  UNL1       -0.0569
     18 C           5.2715   -0.3777   -0.1094 C.ar    1  UNL1       -0.0170
     19 H          -5.6551    0.5193   -0.9837 H       1  UNL1        0.0428
     20 H          -4.6908   -0.8618   -1.5240 H       1  UNL1        0.0428
     21 H          -4.3100    0.8042   -2.0625 H       1  UNL1        0.0428
     22 H          -3.9579    0.8850    1.9779 H       1  UNL1        0.0428
     23 H          -5.4563    0.4390    1.1957 H       1  UNL1        0.0428
     24 H          -4.2987   -0.8329    1.6024 H       1  UNL1        0.0428
     25 H          -1.9023    0.1709    1.9157 H       1  UNL1        0.0636
     26 H           0.4336   -0.3920    1.6961 H       1  UNL1        0.0625
     27 H          -0.0387   -0.7613   -2.5640 H       1  UNL1        0.0625
     28 H          -2.3856   -0.2155   -2.3579 H       1  UNL1        0.0636
     29 H           2.0040    1.5137    0.8357 H       1  UNL1        0.0814
     30 H           4.2310    2.4240    1.5259 H       1  UNL1        0.0632
     31 H           6.2924    1.1707    0.9142 H       1  UNL1        0.0619
     32 H           6.1642   -0.9239   -0.3924 H       1  UNL1        0.0655
@<TRIPOS>BOND
     1     1     2    1
     2     2     3    1
     3     2     4    1
     4     4     5   ar
     5     5     6   ar
     6     6     7   ar
     7     7     8   ar
     8     8     9   ar
     9     7    10    1
    10    10    11   ar
    11    11    12   ar
    12    12    13   ar
    13    13    14   ar
    14    14    15   ar
    15    15    16   ar
    16    16    17   ar
    17    17    18   ar
    18     9     4   ar
    19    14    10   ar
    20    18    13   ar
    21     1    19    1
    22     1    20    1
    23     1    21    1
    24     3    22    1
    25     3    23    1
    26     3    24    1
    27     5    25    1
    28     6    26    1
    29     8    27    1
    30     9    28    1
    31    15    29    1
    32    16    30    1
    33    17    31    1
    34    18    32    1
