@<TRIPOS>MOLECULE
*****
 35 36 0 0 0
SMALL
GASTEIGER

@<TRIPOS>ATOM
      1 C          -4.6324    1.6126    0.0444 C.3     1  UNL1        0.0004
      2 N          -4.0295    0.3131    0.3363 N.pl3   1  UNL1       -0.3360
      3 C          -4.8285   -0.8511   -0.0427 C.3     1  UNL1        0.0004
      4 C          -2.6335    0.2015    0.3497 C.ar    1  UNL1        0.0292
      5 C          -1.9822   -1.0445    0.3382 C.ar    1  UNL1       -0.0401
      6 C          -0.5838   -1.1622    0.3681 C.ar    1  UNL1       -0.0523
      7 C           0.2289   -0.0288    0.4201 C.ar    1  UNL1       -0.0175
      8 C           1.6914   -0.1466    0.4582 C.ar    1  UNL1       -0.0149
      9 C           2.4757   -0.1692   -0.7174 C.ar    1  UNL1       -0.0421
     10 C           1.8479   -0.0729   -2.0831 C.3     1  UNL1       -0.0391
     11 C           3.8728   -0.2841   -0.6145 C.ar    1  UNL1       -0.0480
     12 C           4.4870   -0.3755    0.6375 C.ar    1  UNL1        0.0145
     13 C           5.9554   -0.4959    0.7389 C.2     1  UNL1        0.1502
     14 O           6.6795   -0.5202   -0.2484 O.2     1  UNL1       -0.2957
     15 C           3.7217   -0.3539    1.8019 C.ar    1  UNL1       -0.0509
     16 C           2.3333   -0.2401    1.7079 C.ar    1  UNL1       -0.0531
     17 C          -0.3942    1.2195    0.4524 C.ar    1  UNL1       -0.0523
     18 C          -1.7935    1.3266    0.4221 C.ar    1  UNL1       -0.0401
     19 H          -4.3642    2.3542    0.8044 H       1  UNL1        0.0428
     20 H          -5.7267    1.5547    0.0565 H       1  UNL1        0.0428
     21 H          -4.3319    1.9731   -0.9457 H       1  UNL1        0.0428
     22 H          -4.5833   -1.1842   -1.0572 H       1  UNL1        0.0428
     23 H          -5.9000   -0.6221   -0.0202 H       1  UNL1        0.0428
     24 H          -4.6850   -1.6772    0.6620 H       1  UNL1        0.0428
     25 H          -2.5472   -1.9709    0.3088 H       1  UNL1        0.0636
     26 H          -0.1367   -2.1539    0.3523 H       1  UNL1        0.0624
     27 H           2.6042   -0.1050   -2.8748 H       1  UNL1        0.0278
     28 H           1.1645   -0.9114   -2.2498 H       1  UNL1        0.0278
     29 H           1.3045    0.8714   -2.1885 H       1  UNL1        0.0278
     30 H           4.4882   -0.3027   -1.5131 H       1  UNL1        0.0627
     31 H           6.3739   -0.5638    1.7571 H       1  UNL1        0.1081
     32 H           4.1850   -0.4241    2.7821 H       1  UNL1        0.0625
     33 H           1.7392   -0.2238    2.6209 H       1  UNL1        0.0624
     34 H           0.2040    2.1268    0.5038 H       1  UNL1        0.0624
     35 H          -2.2048    2.3304    0.4611 H       1  UNL1        0.0636
@<TRIPOS>BOND
     1     1     2    1
     2     2     3    1
     3     2     4    1
     4     4     5   ar
     5     5     6   ar
     6     6     7   ar
     7     7     8    1
     8     8     9   ar
     9     9    10    1
    10     9    11   ar
    11    11    12   ar
    12    12    13    1
    13    13    14    2
    14    12    15   ar
    15    15    16   ar
    16     7    17   ar
    17    17    18   ar
    18    18     4   ar
    19    16     8   ar
    20     1    19    1
    21     1    20    1
    22     1    21    1
    23     3    22    1
    24     3    23    1
    25     3    24    1
    26     5    25    1
    27     6    26    1
    28    10    27    1
    29    10    28    1
    30    10    29    1
    31    11    30    1
    32    13    31    1
    33    15    32    1
    34    16    33    1
    35    17    34    1
    36    18    35    1
