@<TRIPOS>MOLECULE
*****
 38 39 0 0 0
SMALL
GASTEIGER

@<TRIPOS>ATOM
      1 C           4.9453    0.6063    0.5546 C.3     1  UNL1        0.0004
      2 N           4.0905    0.4431   -0.6198 N.pl3   1  UNL1       -0.3360
      3 C           4.7223   -0.1852   -1.7786 C.3     1  UNL1        0.0004
      4 C           2.7090    0.3031   -0.4403 C.ar    1  UNL1        0.0292
      5 C           2.0748    0.6308    0.7710 C.ar    1  UNL1       -0.0401
      6 C           0.6882    0.5085    0.9508 C.ar    1  UNL1       -0.0523
      7 C          -0.1314    0.0592   -0.0861 C.ar    1  UNL1       -0.0173
      8 C          -1.5871   -0.0703    0.0969 C.ar    1  UNL1       -0.0120
      9 C          -2.1477   -1.2881    0.5636 C.ar    1  UNL1       -0.0418
     10 C          -1.2800   -2.4793    0.8848 C.3     1  UNL1       -0.0391
     11 C          -3.5379   -1.3999    0.7344 C.ar    1  UNL1       -0.0480
     12 C          -4.3705   -0.3188    0.4472 C.ar    1  UNL1        0.0147
     13 C          -5.8290   -0.4588    0.6341 C.2     1  UNL1        0.1502
     14 O          -6.6100    0.4546    0.3988 O.2     1  UNL1       -0.2957
     15 C          -3.8337    0.8832   -0.0119 C.ar    1  UNL1       -0.0480
     16 C          -2.4477    1.0204   -0.1909 C.ar    1  UNL1       -0.0418
     17 C          -1.9106    2.3384   -0.6893 C.3     1  UNL1       -0.0391
     18 C           0.4727   -0.2566   -1.3044 C.ar    1  UNL1       -0.0523
     19 C           1.8603   -0.1308   -1.4739 C.ar    1  UNL1       -0.0401
     20 H           5.9998    0.6958    0.2698 H       1  UNL1        0.0428
     21 H           4.7031    1.5267    1.0967 H       1  UNL1        0.0428
     22 H           4.8573   -0.2531    1.2285 H       1  UNL1        0.0428
     23 H           5.8029   -0.0030   -1.7899 H       1  UNL1        0.0428
     24 H           4.5708   -1.2703   -1.7699 H       1  UNL1        0.0428
     25 H           4.3389    0.2335   -2.7152 H       1  UNL1        0.0428
     26 H           2.6440    0.9993    1.6186 H       1  UNL1        0.0636
     27 H           0.2539    0.7751    1.9119 H       1  UNL1        0.0624
     28 H          -1.8785   -3.3292    1.2303 H       1  UNL1        0.0278
     29 H          -0.5727   -2.2340    1.6832 H       1  UNL1        0.0278
     30 H          -0.7340   -2.8068   -0.0055 H       1  UNL1        0.0278
     31 H          -3.9637   -2.3346    1.0922 H       1  UNL1        0.0627
     32 H          -6.1862   -1.4361    0.9997 H       1  UNL1        0.1081
     33 H          -4.5000    1.7165   -0.2309 H       1  UNL1        0.0627
     34 H          -2.7162    3.0614   -0.8576 H       1  UNL1        0.0278
     35 H          -1.2286    2.7768    0.0459 H       1  UNL1        0.0278
     36 H          -1.3899    2.2040   -1.6426 H       1  UNL1        0.0278
     37 H          -0.1333   -0.5995   -2.1402 H       1  UNL1        0.0624
     38 H           2.2549   -0.3821   -2.4534 H       1  UNL1        0.0636
@<TRIPOS>BOND
     1     1     2    1
     2     2     3    1
     3     2     4    1
     4     4     5   ar
     5     5     6   ar
     6     6     7   ar
     7     7     8    1
     8     8     9   ar
     9     9    10    1
    10     9    11   ar
    11    11    12   ar
    12    12    13    1
    13    13    14    2
    14    12    15   ar
    15    15    16   ar
    16    16    17    1
    17     7    18   ar
    18    18    19   ar
    19    19     4   ar
    20    16     8   ar
    21     1    20    1
    22     1    21    1
    23     1    22    1
    24     3    23    1
    25     3    24    1
    26     3    25    1
    27     5    26    1
    28     6    27    1
    29    10    28    1
    30    10    29    1
    31    10    30    1
    32    11    31    1
    33    13    32    1
    34    15    33    1
    35    17    34    1
    36    17    35    1
    37    17    36    1
    38    18    37    1
    39    19    38    1
