@<TRIPOS>MOLECULE
*****
 31 32 0 0 0
SMALL
GASTEIGER

@<TRIPOS>ATOM
      1 C          -4.1481    0.1413   -1.9325 C.3     1  UNL1        0.0004
      2 N          -3.6253    0.3763   -0.5877 N.pl3   1  UNL1       -0.3360
      3 C          -4.3736    1.3375    0.2206 C.3     1  UNL1        0.0004
      4 C          -2.2542    0.2160   -0.3555 C.ar    1  UNL1        0.0292
      5 C          -1.4178   -0.4687   -1.2526 C.ar    1  UNL1       -0.0401
      6 C          -0.0447   -0.6477   -1.0154 C.ar    1  UNL1       -0.0523
      7 C           0.5602   -0.1542    0.1437 C.ar    1  UNL1       -0.0178
      8 C           1.9979   -0.3391    0.3968 C.ar    1  UNL1       -0.0174
      9 C           2.8268    0.7604    0.6902 C.ar    1  UNL1       -0.0468
     10 C           4.1925    0.5900    0.9306 C.ar    1  UNL1        0.0251
     11 C           4.7342   -0.6906    0.8785 C.ar    1  UNL1        0.2914
     12 N           6.0903   -0.8647    1.1171 N.1     1  UNL1       -0.2670
     13 C           7.2356   -1.0114    1.3184 C.2     1  UNL1       -0.2278
     14 C           3.9451   -1.8002    0.5923 C.ar    1  UNL1        0.0251
     15 C           2.5806   -1.6199    0.3522 C.ar    1  UNL1       -0.0468
     16 C          -0.2590    0.5164    1.0560 C.ar    1  UNL1       -0.0523
     17 C          -1.6316    0.6892    0.8115 C.ar    1  UNL1       -0.0401
     18 H          -3.9977   -0.8989   -2.2405 H       1  UNL1        0.0428
     19 H          -5.2299    0.3120   -1.9741 H       1  UNL1        0.0428
     20 H          -3.6798    0.8132   -2.6603 H       1  UNL1        0.0428
     21 H          -5.4297    1.3650   -0.0707 H       1  UNL1        0.0428
     22 H          -4.3630    1.0586    1.2797 H       1  UNL1        0.0428
     23 H          -3.9717    2.3498    0.1014 H       1  UNL1        0.0428
     24 H          -1.8108   -0.8904   -2.1725 H       1  UNL1        0.0636
     25 H           0.5467   -1.1755   -1.7607 H       1  UNL1        0.0624
     26 H           2.4081    1.7651    0.7205 H       1  UNL1        0.0626
     27 H           4.8202    1.4485    1.1522 H       1  UNL1        0.0694
     28 H           4.3796   -2.7954    0.5581 H       1  UNL1        0.0694
     29 H           1.9635   -2.4917    0.1404 H       1  UNL1        0.0626
     30 H           0.1560    0.9023    1.9848 H       1  UNL1        0.0624
     31 H          -2.2001    1.2067    1.5780 H       1  UNL1        0.0636
@<TRIPOS>UNITY_ATOM_ATTR
12 1
charge 1
13 1
charge -1
@<TRIPOS>BOND
     1     1     2    1
     2     2     3    1
     3     2     4    1
     4     4     5   ar
     5     5     6   ar
     6     6     7   ar
     7     7     8    1
     8     8     9   ar
     9     9    10   ar
    10    10    11   ar
    11    11    12    1
    12    12    13    3
    13    11    14   ar
    14    14    15   ar
    15     7    16   ar
    16    16    17   ar
    17    17     4   ar
    18    15     8   ar
    19     1    18    1
    20     1    19    1
    21     1    20    1
    22     3    21    1
    23     3    22    1
    24     3    23    1
    25     5    24    1
    26     6    25    1
    27     9    26    1
    28    10    27    1
    29    14    28    1
    30    15    29    1
    31    16    30    1
    32    17    31    1
