@<TRIPOS>MOLECULE
*****
 32 33 0 0 0
SMALL
GASTEIGER

@<TRIPOS>ATOM
      1 C          -4.4958   -1.4410   -0.7608 C.3     1  UNL1        0.0004
      2 N          -3.8752   -0.1653   -0.4085 N.pl3   1  UNL1       -0.3360
      3 C          -4.6992    0.7376    0.3932 C.3     1  UNL1        0.0004
      4 C          -2.4820   -0.0976   -0.2913 C.ar    1  UNL1        0.0292
      5 C          -1.6377   -1.0938   -0.8092 C.ar    1  UNL1       -0.0401
      6 C          -0.2382   -1.0225   -0.7081 C.ar    1  UNL1       -0.0523
      7 C           0.3890    0.0629   -0.0904 C.ar    1  UNL1       -0.0178
      8 C           1.8544    0.1423    0.0171 C.ar    1  UNL1       -0.0178
      9 C           2.5530    1.2737   -0.4391 C.ar    1  UNL1       -0.0534
     10 C           3.9451    1.3520   -0.3368 C.ar    1  UNL1       -0.0510
     11 C           4.6587    0.2939    0.2271 C.ar    1  UNL1        0.0142
     12 C           6.1290    0.3651    0.3422 C.2     1  UNL1        0.1502
     13 O           6.7680    1.3365   -0.0421 O.2     1  UNL1       -0.2957
     14 C           3.9891   -0.8405    0.6874 C.ar    1  UNL1       -0.0510
     15 C           2.5961   -0.9116    0.5805 C.ar    1  UNL1       -0.0534
     16 C          -0.4341    1.0729    0.4152 C.ar    1  UNL1       -0.0523
     17 C          -1.8328    0.9927    0.3113 C.ar    1  UNL1       -0.0401
     18 H          -4.2578   -2.2127   -0.0204 H       1  UNL1        0.0428
     19 H          -4.1805   -1.7743   -1.7553 H       1  UNL1        0.0428
     20 H          -5.5872   -1.3533   -0.8068 H       1  UNL1        0.0428
     21 H          -5.7665    0.5737    0.2058 H       1  UNL1        0.0428
     22 H          -4.5078    1.7845    0.1344 H       1  UNL1        0.0428
     23 H          -4.5246    0.5841    1.4638 H       1  UNL1        0.0428
     24 H          -2.0445   -1.9616   -1.3190 H       1  UNL1        0.0636
     25 H           0.3553   -1.8259   -1.1395 H       1  UNL1        0.0624
     26 H           2.0131    2.1034   -0.8925 H       1  UNL1        0.0624
     27 H           4.4656    2.2361   -0.6995 H       1  UNL1        0.0625
     28 H           6.6297   -0.5067    0.7957 H       1  UNL1        0.1081
     29 H           4.5310   -1.6711    1.1316 H       1  UNL1        0.0625
     30 H           2.0837   -1.7968    0.9542 H       1  UNL1        0.0624
     31 H           0.0015    1.9401    0.9073 H       1  UNL1        0.0624
     32 H          -2.3985    1.8232    0.7218 H       1  UNL1        0.0636
@<TRIPOS>BOND
     1     1     2    1
     2     2     3    1
     3     2     4    1
     4     4     5   ar
     5     5     6   ar
     6     6     7   ar
     7     7     8    1
     8     8     9   ar
     9     9    10   ar
    10    10    11   ar
    11    11    12    1
    12    12    13    2
    13    11    14   ar
    14    14    15   ar
    15     7    16   ar
    16    16    17   ar
    17    17     4   ar
    18    15     8   ar
    19     1    18    1
    20     1    19    1
    21     1    20    1
    22     3    21    1
    23     3    22    1
    24     3    23    1
    25     5    24    1
    26     6    25    1
    27     9    26    1
    28    10    27    1
    29    12    28    1
    30    14    29    1
    31    15    30    1
    32    16    31    1
    33    17    32    1
