@<TRIPOS>MOLECULE
*****
 39 41 0 0 0
SMALL
GASTEIGER

@<TRIPOS>ATOM
      1 C           5.9341    0.5772   -0.8899 C.3     1  UNL1        0.0004
      2 N           4.7309    1.1164   -0.2577 N.pl3   1  UNL1       -0.3360
      3 C           4.9593    1.9492    0.9227 C.3     1  UNL1        0.0004
      4 C           3.5237    0.4158   -0.3721 C.ar    1  UNL1        0.0298
      5 C           3.3596   -0.6473   -1.2761 C.ar    1  UNL1       -0.0401
      6 C           2.1503   -1.3447   -1.4105 C.ar    1  UNL1       -0.0523
      7 C           1.0373   -0.9971   -0.6452 C.ar    1  UNL1       -0.0170
      8 C           1.1543    0.0857    0.2724 C.ar    1  UNL1       -0.0154
      9 C           0.0480    0.4675    1.0532 C.ar    1  UNL1       -0.0411
     10 C          -1.1270   -0.2400    0.8976 C.ar    1  UNL1        0.0500
     11 C          -2.4235   -0.0794    1.5532 C.2     1  UNL1        0.2543
     12 N          -3.2367   -1.0496    1.0405 N.am    1  UNL1       -0.2233
     13 C          -4.6365   -1.1966    1.3855 C.3     1  UNL1        0.1200
     14 C          -5.5669   -0.3619    0.5151 C.2     1  UNL1        0.3249
     15 O          -4.9000    0.3654   -0.4248 O.3     1  UNL1       -0.4668
     16 C          -5.7443    1.1601   -1.2584 C.3     1  UNL1        0.0817
     17 O          -6.7853   -0.3566    0.6587 O.2     1  UNL1       -0.2491
     18 C          -2.6025   -1.8020    0.0932 C.2     1  UNL1        0.2543
     19 O          -3.0413   -2.7158   -0.5774 O.2     1  UNL1       -0.2695
     20 O          -2.6785    0.7735    2.3807 O.2     1  UNL1       -0.2695
     21 C          -1.2360   -1.2902    0.0079 C.ar    1  UNL1        0.0500
     22 C          -0.1768   -1.6939   -0.7784 C.ar    1  UNL1       -0.0412
     23 C           2.3850    0.7637    0.3810 C.ar    1  UNL1       -0.0329
     24 H           5.8091    0.4943   -1.9749 H       1  UNL1        0.0428
     25 H           6.7936    1.2400   -0.7383 H       1  UNL1        0.0428
     26 H           6.1931   -0.4018   -0.4719 H       1  UNL1        0.0428
     27 H           4.2520    2.7845    0.9604 H       1  UNL1        0.0428
     28 H           4.8825    1.3586    1.8424 H       1  UNL1        0.0428
     29 H           5.9570    2.4021    0.9053 H       1  UNL1        0.0428
     30 H           4.1782   -0.9702   -1.9126 H       1  UNL1        0.0636
     31 H           2.0978   -2.1607   -2.1285 H       1  UNL1        0.0624
     32 H           0.0997    1.2907    1.7597 H       1  UNL1        0.0631
     33 H          -4.9188   -2.2472    1.2653 H       1  UNL1        0.0585
     34 H          -4.7767   -0.8806    2.4240 H       1  UNL1        0.0585
     35 H          -6.2919    1.8949   -0.6599 H       1  UNL1        0.0661
     36 H          -6.4348    0.5246   -1.8216 H       1  UNL1        0.0661
     37 H          -5.1098    1.6966   -1.9692 H       1  UNL1        0.0661
     38 H          -0.2937   -2.5207   -1.4725 H       1  UNL1        0.0631
     39 H           2.4358    1.5954    1.0785 H       1  UNL1        0.0642
@<TRIPOS>BOND
     1     1     2    1
     2     2     3    1
     3     2     4    1
     4     4     5   ar
     5     5     6   ar
     6     6     7   ar
     7     7     8   ar
     8     8     9   ar
     9     9    10   ar
    10    10    11    1
    11    11    12   am
    12    12    13    1
    13    13    14    1
    14    14    15    1
    15    15    16    1
    16    14    17    2
    17    12    18   am
    18    18    19    2
    19    11    20    2
    20    10    21   ar
    21    21    22   ar
    22     8    23   ar
    23    23     4   ar
    24    22     7   ar
    25    21    18    1
    26     1    24    1
    27     1    25    1
    28     1    26    1
    29     3    27    1
    30     3    28    1
    31     3    29    1
    32     5    30    1
    33     6    31    1
    34     9    32    1
    35    13    33    1
    36    13    34    1
    37    16    35    1
    38    16    36    1
    39    16    37    1
    40    22    38    1
    41    23    39    1
