@<TRIPOS>MOLECULE
*****
 32 33 0 0 0
SMALL
GASTEIGER

@<TRIPOS>ATOM
      1 C          -3.8771   -1.9743    0.1218 C.3     1  UNL1        0.0004
      2 N          -3.5653   -0.6378    0.6277 N.pl3   1  UNL1       -0.3360
      3 C          -4.7049    0.2703    0.7446 C.3     1  UNL1        0.0004
      4 C          -2.2916   -0.1086    0.3782 C.ar    1  UNL1        0.0298
      5 C          -2.0276    1.2695    0.4345 C.ar    1  UNL1       -0.0401
      6 C          -0.7508    1.7993    0.1998 C.ar    1  UNL1       -0.0523
      7 C           0.3287    0.9614   -0.0899 C.ar    1  UNL1       -0.0171
      8 C           0.1115   -0.4287   -0.1404 C.ar    1  UNL1       -0.0161
      9 C           1.1917   -1.2797   -0.4324 C.ar    1  UNL1       -0.0533
     10 C           2.4694   -0.7642   -0.6652 C.ar    1  UNL1       -0.0503
     11 C           2.6856    0.6138   -0.5928 C.ar    1  UNL1        0.0222
     12 C           4.0170    1.2102   -0.8511 C.2     1  UNL1        0.1855
     13 C           5.2537    0.5752   -0.3209 C.2     1  UNL1       -0.0214
     14 C           5.3266   -0.2040    0.7655 C.2     1  UNL1       -0.0951
     15 O           4.1078    2.2440   -1.5074 O.2     1  UNL1       -0.2873
     16 C           1.6147    1.4741   -0.3256 C.ar    1  UNL1       -0.0432
     17 C          -1.1847   -0.9337    0.0983 C.ar    1  UNL1       -0.0330
     18 H          -4.9227   -2.2400    0.3149 H       1  UNL1        0.0428
     19 H          -3.7180   -2.0339   -0.9607 H       1  UNL1        0.0428
     20 H          -3.2760   -2.7386    0.6255 H       1  UNL1        0.0428
     21 H          -4.5598    0.9878    1.5595 H       1  UNL1        0.0428
     22 H          -4.8787    0.8074   -0.1944 H       1  UNL1        0.0428
     23 H          -5.6222   -0.2772    0.9892 H       1  UNL1        0.0428
     24 H          -2.8147    1.9825    0.6599 H       1  UNL1        0.0636
     25 H          -0.6149    2.8775    0.2504 H       1  UNL1        0.0624
     26 H           1.0404   -2.3558   -0.4893 H       1  UNL1        0.0624
     27 H           3.2777   -1.4457   -0.9158 H       1  UNL1        0.0625
     28 H           6.1577    0.8581   -0.8529 H       1  UNL1        0.0650
     29 H           4.4615   -0.4579    1.3692 H       1  UNL1        0.0536
     30 H           6.2871   -0.5874    1.0971 H       1  UNL1        0.0536
     31 H           1.7893    2.5486   -0.2998 H       1  UNL1        0.0631
     32 H          -1.3110   -2.0120    0.0693 H       1  UNL1        0.0642
@<TRIPOS>BOND
     1     1     2    1
     2     2     3    1
     3     2     4    1
     4     4     5   ar
     5     5     6   ar
     6     6     7   ar
     7     7     8   ar
     8     8     9   ar
     9     9    10   ar
    10    10    11   ar
    11    11    12    1
    12    12    13    1
    13    13    14    2
    14    12    15    2
    15    11    16   ar
    16     8    17   ar
    17    17     4   ar
    18    16     7   ar
    19     1    18    1
    20     1    19    1
    21     1    20    1
    22     3    21    1
    23     3    22    1
    24     3    23    1
    25     5    24    1
    26     6    25    1
    27     9    26    1
    28    10    27    1
    29    13    28    1
    30    14    29    1
    31    14    30    1
    32    16    31    1
    33    17    32    1
