@<TRIPOS>MOLECULE
*****
 31 32 0 0 0
SMALL
GASTEIGER

@<TRIPOS>ATOM
      1 C          -4.5534   -0.7852    0.4492 C.3     1  UNL1        0.0004
      2 N          -3.5401    0.0383   -0.2082 N.pl3   1  UNL1       -0.3360
      3 C          -3.9479    1.4084   -0.5177 C.3     1  UNL1        0.0004
      4 C          -2.1845   -0.2175    0.0370 C.ar    1  UNL1        0.0298
      5 C          -1.7502   -1.3509    0.7429 C.ar    1  UNL1       -0.0401
      6 C          -0.3930   -1.6152    0.9755 C.ar    1  UNL1       -0.0523
      7 C           0.5962   -0.7536    0.4950 C.ar    1  UNL1       -0.0171
      8 C           0.2051    0.3842   -0.2325 C.ar    1  UNL1       -0.0161
      9 C           1.1952    1.2502   -0.7252 C.ar    1  UNL1       -0.0533
     10 C           2.5530    0.9969   -0.5013 C.ar    1  UNL1       -0.0506
     11 C           2.9447   -0.1345    0.2204 C.ar    1  UNL1        0.0188
     12 C           4.3813   -0.4567    0.4905 C.2     1  UNL1        0.1735
     13 C           5.4295    0.3812   -0.2073 C.3     1  UNL1        0.0663
     14 BR          7.1991   -0.3868    0.0316 Br      1  UNL1       -0.0833
     15 O           4.6361   -1.3700    1.2725 O.2     1  UNL1       -0.2912
     16 C           1.9614   -1.0021    0.7171 C.ar    1  UNL1       -0.0435
     17 C          -1.1682    0.6270   -0.4508 C.ar    1  UNL1       -0.0330
     18 H          -5.5613   -0.5085    0.1194 H       1  UNL1        0.0428
     19 H          -4.5144   -0.6638    1.5373 H       1  UNL1        0.0428
     20 H          -4.4351   -1.8431    0.1907 H       1  UNL1        0.0428
     21 H          -3.6313    2.1019    0.2694 H       1  UNL1        0.0428
     22 H          -3.5420    1.7342   -1.4811 H       1  UNL1        0.0428
     23 H          -5.0371    1.4900   -0.6079 H       1  UNL1        0.0428
     24 H          -2.4598   -2.0691    1.1422 H       1  UNL1        0.0636
     25 H          -0.1231   -2.5079    1.5359 H       1  UNL1        0.0624
     26 H           0.9113    2.1367   -1.2897 H       1  UNL1        0.0624
     27 H           3.2726    1.7063   -0.8983 H       1  UNL1        0.0625
     28 H           5.2614    0.4033   -1.2863 H       1  UNL1        0.0463
     29 H           5.4656    1.3864    0.2179 H       1  UNL1        0.0463
     30 H           2.2613   -1.8845    1.2819 H       1  UNL1        0.0631
     31 H          -1.4323    1.5044   -1.0339 H       1  UNL1        0.0642
@<TRIPOS>BOND
     1     1     2    1
     2     2     3    1
     3     2     4    1
     4     4     5   ar
     5     5     6   ar
     6     6     7   ar
     7     7     8   ar
     8     8     9   ar
     9     9    10   ar
    10    10    11   ar
    11    11    12    1
    12    12    13    1
    13    13    14    1
    14    12    15    2
    15    11    16   ar
    16     8    17   ar
    17    17     4   ar
    18    16     7   ar
    19     1    18    1
    20     1    19    1
    21     1    20    1
    22     3    21    1
    23     3    22    1
    24     3    23    1
    25     5    24    1
    26     6    25    1
    27     9    26    1
    28    10    27    1
    29    13    28    1
    30    13    29    1
    31    16    30    1
    32    17    31    1
