@<TRIPOS>MOLECULE
*****
 39 40 0 0 0
SMALL
GASTEIGER

@<TRIPOS>ATOM
      1 C           4.6112   -0.2290   -0.0410 C.3     1  UNL1        0.0004
      2 N           3.4370   -0.7162    0.6894 N.pl3   1  UNL1       -0.3355
      3 C           3.6134   -2.0301    1.3099 C.3     1  UNL1        0.0004
      4 C           2.2635   -0.6083   -0.1085 C.ar    1  UNL1        0.0371
      5 C           1.9954   -1.5397   -1.1224 C.ar    1  UNL1       -0.0401
      6 C           0.8647   -1.4160   -1.9155 C.ar    1  UNL1       -0.0594
      7 C          -0.0168   -0.3571   -1.7075 C.ar    1  UNL1       -0.0520
      8 C           0.1956    0.6167   -0.6998 C.ar    1  UNL1        0.0102
      9 C          -0.6719    1.7174   -0.4324 C.ar    1  UNL1        0.1130
     10 S          -2.1846    1.9726   -1.3399 S.O2    1  UNL1        0.0590
     11 O          -1.8818    1.9438   -2.7533 O.2     1  UNL1       -0.1530
     12 N          -3.0632    0.5806   -1.0072 N.3     1  UNL1       -0.1887
     13 C          -3.7580    0.4833    0.2850 C.3     1  UNL1        0.0298
     14 C          -3.9007   -0.9928    0.6940 C.3     1  UNL1        0.0073
     15 N          -4.4987   -1.8355   -0.3476 N.3     1  UNL1       -0.3287
     16 O          -2.9146    3.0771   -0.7545 O.2     1  UNL1       -0.1530
     17 C          -0.3871    2.6521    0.5750 C.ar    1  UNL1       -0.0347
     18 C           0.7526    2.5089    1.3483 C.ar    1  UNL1       -0.0593
     19 C           1.6072    1.4354    1.1149 C.ar    1  UNL1       -0.0521
     20 C           1.3632    0.4794    0.1032 C.ar    1  UNL1        0.0050
     21 H           5.4769   -0.1992    0.6297 H       1  UNL1        0.0428
     22 H           4.8623   -0.8770   -0.8887 H       1  UNL1        0.0428
     23 H           4.4539    0.7914   -0.4095 H       1  UNL1        0.0428
     24 H           4.3990   -1.9704    2.0712 H       1  UNL1        0.0428
     25 H           2.6969   -2.3521    1.8176 H       1  UNL1        0.0428
     26 H           3.9104   -2.7967    0.5858 H       1  UNL1        0.0428
     27 H           2.6789   -2.3612   -1.3146 H       1  UNL1        0.0636
     28 H           0.6708   -2.1377   -2.7046 H       1  UNL1        0.0618
     29 H          -0.8773   -0.3065   -2.3692 H       1  UNL1        0.0624
     30 H          -3.5278    0.2061   -1.8314 H       1  UNL1        0.1480
     31 H          -4.7489    0.9400    0.1858 H       1  UNL1        0.0454
     32 H          -3.2076    1.0106    1.0707 H       1  UNL1        0.0454
     33 H          -2.9139   -1.4025    0.9386 H       1  UNL1        0.0435
     34 H          -4.5119   -1.0590    1.6002 H       1  UNL1        0.0435
     35 H          -5.3558   -1.4052   -0.6909 H       1  UNL1        0.1183
     36 H          -3.8557   -1.8811   -1.1368 H       1  UNL1        0.1183
     37 H          -1.0502    3.4935    0.7658 H       1  UNL1        0.0637
     38 H           0.9804    3.2251    2.1333 H       1  UNL1        0.0618
     39 H           2.4931    1.3396    1.7420 H       1  UNL1        0.0624
@<TRIPOS>BOND
     1     1     2    1
     2     2     3    1
     3     2     4    1
     4     4     5   ar
     5     5     6   ar
     6     6     7   ar
     7     7     8   ar
     8     8     9   ar
     9     9    10    1
    10    10    11    2
    11    10    12    1
    12    12    13    1
    13    13    14    1
    14    14    15    1
    15    10    16    2
    16     9    17   ar
    17    17    18   ar
    18    18    19   ar
    19    19    20   ar
    20    20     4   ar
    21    20     8   ar
    22     1    21    1
    23     1    22    1
    24     1    23    1
    25     3    24    1
    26     3    25    1
    27     3    26    1
    28     5    27    1
    29     6    28    1
    30     7    29    1
    31    12    30    1
    32    13    31    1
    33    13    32    1
    34    14    33    1
    35    14    34    1
    36    15    35    1
    37    15    36    1
    38    17    37    1
    39    18    38    1
    40    19    39    1
