@<TRIPOS>MOLECULE
*****
 33 34 0 0 0
SMALL
GASTEIGER

@<TRIPOS>ATOM
      1 C           3.2900    2.2634   -0.1930 C.3     1  UNL1        0.0004
      2 N           2.9305    0.8460   -0.2636 N.pl3   1  UNL1       -0.3355
      3 C           3.8209    0.0342   -1.0975 C.3     1  UNL1        0.0004
      4 C           1.5652    0.6301   -0.6021 C.ar    1  UNL1        0.0371
      5 C           1.0330    1.1402   -1.7947 C.ar    1  UNL1       -0.0401
      6 C          -0.2924    0.9125   -2.1300 C.ar    1  UNL1       -0.0594
      7 C          -1.1078    0.1704   -1.2767 C.ar    1  UNL1       -0.0520
      8 C          -0.6321   -0.3735   -0.0558 C.ar    1  UNL1        0.0103
      9 C          -1.4125   -1.1351    0.8670 C.ar    1  UNL1        0.1143
     10 S          -3.1334   -1.4977    0.5832 S.O2    1  UNL1        0.0714
     11 O          -3.6207   -2.3475    1.6546 O.2     1  UNL1       -0.1519
     12 N          -3.8653    0.0623    0.8108 N.3     1  UNL1       -0.1274
     13 N          -5.1544   -0.0852    1.4095 N.3     1  UNL1       -0.2511
     14 O          -3.3414   -1.8658   -0.8000 O.2     1  UNL1       -0.1519
     15 C          -0.8590   -1.6475    2.0513 C.ar    1  UNL1       -0.0347
     16 C           0.4705   -1.4080    2.3548 C.ar    1  UNL1       -0.0593
     17 C           1.2481   -0.6597    1.4767 C.ar    1  UNL1       -0.0521
     18 C           0.7335   -0.1330    0.2713 C.ar    1  UNL1        0.0050
     19 H           2.5873    2.8161    0.4413 H       1  UNL1        0.0428
     20 H           4.2822    2.3662    0.2601 H       1  UNL1        0.0428
     21 H           3.3248    2.7341   -1.1819 H       1  UNL1        0.0428
     22 H           4.8475    0.1099   -0.7222 H       1  UNL1        0.0428
     23 H           3.5407   -1.0249   -1.0591 H       1  UNL1        0.0428
     24 H           3.8186    0.3643   -2.1427 H       1  UNL1        0.0428
     25 H           1.6558    1.7090   -2.4787 H       1  UNL1        0.0636
     26 H          -0.6931    1.3042   -3.0615 H       1  UNL1        0.0618
     27 H          -2.1302    0.0183   -1.6091 H       1  UNL1        0.0624
     28 H          -3.9355    0.5408   -0.0961 H       1  UNL1        0.1675
     29 H          -5.6983   -0.7569    0.8528 H       1  UNL1        0.1384
     30 H          -5.0104   -0.5798    2.3022 H       1  UNL1        0.1384
     31 H          -1.4578   -2.2310    2.7476 H       1  UNL1        0.0637
     32 H           0.9060   -1.7969    3.2715 H       1  UNL1        0.0618
     33 H           2.2898   -0.4797    1.7410 H       1  UNL1        0.0624
@<TRIPOS>BOND
     1     1     2    1
     2     2     3    1
     3     2     4    1
     4     4     5   ar
     5     5     6   ar
     6     6     7   ar
     7     7     8   ar
     8     8     9   ar
     9     9    10    1
    10    10    11    2
    11    10    12    1
    12    12    13    1
    13    10    14    2
    14     9    15   ar
    15    15    16   ar
    16    16    17   ar
    17    17    18   ar
    18    18     4   ar
    19    18     8   ar
    20     1    19    1
    21     1    20    1
    22     1    21    1
    23     3    22    1
    24     3    23    1
    25     3    24    1
    26     5    25    1
    27     6    26    1
    28     7    27    1
    29    12    28    1
    30    13    29    1
    31    13    30    1
    32    15    31    1
    33    16    32    1
    34    17    33    1
