@<TRIPOS>MOLECULE
*****
 37 42 0 0 0
SMALL
GASTEIGER

@<TRIPOS>ATOM
      1 SI         -4.8749   -1.5574   -1.4584 Si      1  UNL1        0.0000
      2 C          -6.4338   -0.7893   -0.6451 C.2     1  UNL1        0.0000
      3 C          -6.1021    0.1123    0.3040 C.2     1  UNL1        0.0000
      4 C          -4.6757    0.2638    0.4606 C.2     1  UNL1        0.0000
      5 C          -3.8905   -0.4999   -0.3456 C.2     1  UNL1        0.0000
      6 C          -2.5322   -0.2604   -0.0980 C.ar    1  UNL1        0.0000
      7 N          -1.4187   -0.7901   -0.6653 N.ar    1  UNL1        0.0000
      8 C          -0.3021   -0.2159   -0.0632 C.ar    1  UNL1        0.0000
      9 C           1.0599   -0.4442   -0.3101 C.ar    1  UNL1        0.0000
     10 C           2.0187    0.2727    0.4310 C.ar    1  UNL1        0.0000
     11 C           1.5767    1.1925    1.3970 C.ar    1  UNL1        0.0000
     12 C           0.2139    1.4177    1.6436 C.ar    1  UNL1        0.0000
     13 C          -0.7422    0.7038    0.9050 C.ar    1  UNL1        0.0000
     14 C          -2.1307    0.6477    0.8558 C.ar    1  UNL1        0.0000
     15 SI         -3.6839    1.3779    1.6282 Si      1  UNL1        0.0000
     16 C           3.4552    0.0511    0.2198 C.ar    1  UNL1        0.0000
     17 C           4.3486   -0.2391    1.2838 C.ar    1  UNL1        0.0000
     18 C           5.7378   -0.4548    1.1201 C.ar    1  UNL1        0.0000
     19 C           6.3759   -0.4001   -0.1273 C.ar    1  UNL1        0.0000
     20 C           5.5488   -0.1141   -1.2385 C.ar    1  UNL1        0.0000
     21 N           5.9671   -0.0178   -2.5100 N.ar    1  UNL1        0.0000
     22 S           4.6270    0.3416   -3.4185 S.2     1  UNL1        0.0000
     23 N           3.4559    0.3776   -2.2475 N.ar    1  UNL1        0.0000
     24 C           4.0607    0.1164   -1.0735 C.ar    1  UNL1        0.0000
     25 H          -4.7742   -3.0100   -1.1678 H       1  UNL1        0.0000
     26 H          -4.7788   -1.1920   -2.8941 H       1  UNL1        0.0000
     27 H          -7.4218   -1.0872   -0.9575 H       1  UNL1        0.0000
     28 H          -6.8222    0.6684    0.8906 H       1  UNL1        0.0000
     29 H          -1.3807   -1.4794   -1.4024 H       1  UNL1        0.0000
     30 H           1.3653   -1.1647   -1.0638 H       1  UNL1        0.0000
     31 H           2.3010    1.7662    1.9729 H       1  UNL1        0.0000
     32 H          -0.0902    2.1401    2.3946 H       1  UNL1        0.0000
     33 H          -3.8934    2.8190    1.3295 H       1  UNL1        0.0000
     34 H          -3.8860    1.0046    3.0531 H       1  UNL1        0.0000
     35 H           3.9444   -0.3149    2.2955 H       1  UNL1        0.0000
     36 H           6.3373   -0.6755    2.0038 H       1  UNL1        0.0000
     37 H           7.4402   -0.5665   -0.2414 H       1  UNL1        0.0000
@<TRIPOS>BOND
     1     1     2    1
     2     2     3    2
     3     3     4    1
     4     4     5    2
     5     5     6    1
     6     6     7   ar
     7     7     8   ar
     8     8     9   ar
     9     9    10   ar
    10    10    11   ar
    11    11    12   ar
    12    12    13   ar
    13    13    14   ar
    14    14    15    1
    15    10    16    1
    16    16    17   ar
    17    17    18   ar
    18    18    19   ar
    19    19    20   ar
    20    20    21   ar
    21    21    22   ar
    22    22    23   ar
    23    23    24   ar
    24     5     1    1
    25    14     6   ar
    26    24    16   ar
    27    15     4    1
    28    24    20   ar
    29    13     8   ar
    30     1    25    1
    31     1    26    1
    32     2    27    1
    33     3    28    1
    34     7    29    1
    35     9    30    1
    36    11    31    1
    37    12    32    1
    38    15    33    1
    39    15    34    1
    40    17    35    1
    41    18    36    1
    42    19    37    1
