@<TRIPOS>MOLECULE
*****
 39 41 0 0 0
SMALL
GASTEIGER

@<TRIPOS>ATOM
      1 C          -4.7781    1.5260    0.8483 C.3     1  UNL1        0.0004
      2 N          -3.9455    0.6080    0.0725 N.pl3   1  UNL1       -0.3360
      3 C          -4.5383   -0.6994   -0.2031 C.3     1  UNL1        0.0004
      4 C          -2.5502    0.7186    0.1673 C.ar    1  UNL1        0.0295
      5 C          -1.6914   -0.3183   -0.2468 C.ar    1  UNL1       -0.0361
      6 C          -0.3074   -0.1738   -0.1558 C.ar    1  UNL1       -0.0279
      7 C           0.2711    1.0077    0.3377 C.ar    1  UNL1       -0.0135
      8 C           1.7117    0.8796    0.3170 C.ar    1  UNL1       -0.0135
      9 C           2.6990    1.7737    0.7030 C.ar    1  UNL1       -0.0531
     10 C           4.0384    1.3887    0.5754 C.ar    1  UNL1       -0.0509
     11 C           4.3692    0.1193    0.0654 C.ar    1  UNL1        0.0145
     12 C           5.7931   -0.2552   -0.0557 C.2     1  UNL1        0.1502
     13 O           6.1477   -1.3444   -0.4889 O.2     1  UNL1       -0.2957
     14 C           3.3761   -0.7852   -0.3252 C.ar    1  UNL1       -0.0469
     15 C           2.0509   -0.3933   -0.1947 C.ar    1  UNL1       -0.0290
     16 C           0.7822   -1.1769   -0.5433 C.3     1  UNL1        0.0163
     17 C           0.6780   -2.4547    0.2970 C.3     1  UNL1       -0.0517
     18 C           0.7292   -1.4968   -2.0415 C.3     1  UNL1       -0.0517
     19 C          -0.5354    2.0523    0.7373 C.ar    1  UNL1       -0.0520
     20 C          -1.9291    1.9006    0.6438 C.ar    1  UNL1       -0.0401
     21 H          -5.8433    1.3010    0.7225 H       1  UNL1        0.0428
     22 H          -4.5516    1.4561    1.9180 H       1  UNL1        0.0428
     23 H          -4.6491    2.5597    0.5102 H       1  UNL1        0.0428
     24 H          -4.2984   -1.4160    0.5902 H       1  UNL1        0.0428
     25 H          -5.6301   -0.6332   -0.2709 H       1  UNL1        0.0428
     26 H          -4.2030   -1.0918   -1.1693 H       1  UNL1        0.0428
     27 H          -2.0799   -1.2488   -0.6439 H       1  UNL1        0.0639
     28 H           2.4457    2.7529    1.0963 H       1  UNL1        0.0624
     29 H           4.8176    2.0850    0.8761 H       1  UNL1        0.0625
     30 H           6.5295    0.5001    0.2660 H       1  UNL1        0.1081
     31 H           3.6376   -1.7633   -0.7186 H       1  UNL1        0.0628
     32 H          -0.2618   -2.9844    0.1031 H       1  UNL1        0.0241
     33 H           1.4988   -3.1464    0.0748 H       1  UNL1        0.0241
     34 H           0.7152   -2.2367    1.3714 H       1  UNL1        0.0241
     35 H          -0.2087   -1.9965   -2.3101 H       1  UNL1        0.0241
     36 H           1.5521   -2.1576   -2.3377 H       1  UNL1        0.0241
     37 H           0.8027   -0.5885   -2.6521 H       1  UNL1        0.0241
     38 H          -0.1163    2.9797    1.1117 H       1  UNL1        0.0624
     39 H          -2.5281    2.7523    0.9526 H       1  UNL1        0.0636
@<TRIPOS>BOND
     1     1     2    1
     2     2     3    1
     3     2     4    1
     4     4     5   ar
     5     5     6   ar
     6     6     7   ar
     7     7     8    1
     8     8     9   ar
     9     9    10   ar
    10    10    11   ar
    11    11    12    1
    12    12    13    2
    13    11    14   ar
    14     8    15   ar
    15    15    16    1
    16    16    17    1
    17    16    18    1
    18     7    19   ar
    19    19    20   ar
    20    20     4   ar
    21    16     6    1
    22    15    14   ar
    23     1    21    1
    24     1    22    1
    25     1    23    1
    26     3    24    1
    27     3    25    1
    28     3    26    1
    29     5    27    1
    30     9    28    1
    31    10    29    1
    32    12    30    1
    33    14    31    1
    34    17    32    1
    35    17    33    1
    36    17    34    1
    37    18    35    1
    38    18    36    1
    39    18    37    1
    40    19    38    1
    41    20    39    1
