@<TRIPOS>MOLECULE
*****
 31 34 0 0 0
SMALL
GASTEIGER

@<TRIPOS>ATOM
      1 C          -4.4198   -0.7296   -0.4456 C.3     1  UNL1        0.0004
      2 N          -3.3365    0.0939    0.0895 N.pl3   1  UNL1       -0.3360
      3 C          -3.6231    1.5249    0.1865 C.3     1  UNL1        0.0004
      4 C          -2.0060   -0.3202   -0.0872 C.ar    1  UNL1        0.0299
      5 C          -0.9250    0.5363    0.2203 C.ar    1  UNL1       -0.0309
      6 C           0.3716    0.0867    0.0499 C.ar    1  UNL1        0.0113
      7 C           0.6416   -1.2435   -0.4259 C.ar    1  UNL1        0.0270
      8 C           2.0793   -1.4113   -0.4940 C.ar    1  UNL1        0.1463
      9 N           3.0418   -2.2479   -0.7988 N.ar    1  UNL1       -0.2349
     10 C           4.2223   -1.5110   -0.5401 C.ar    1  UNL1        0.0538
     11 C           3.9406   -0.2337   -0.0810 C.ar    1  UNL1        0.0666
     12 N           2.5929   -0.2387   -0.0765 N.ar    1  UNL1       -0.2921
     13 C           1.6844    0.7308    0.2752 C.ar    1  UNL1        0.0564
     14 C           2.1991    1.8989    0.6920 C.ar    1  UNL1       -0.0371
     15 C           3.6796    2.0072    0.7242 C.ar    1  UNL1       -0.0578
     16 C           4.5115    0.9932    0.3565 C.ar    1  UNL1       -0.0362
     17 C          -0.3784   -2.1090   -0.7202 C.ar    1  UNL1       -0.0487
     18 C          -1.6903   -1.6375   -0.5416 C.ar    1  UNL1       -0.0400
     19 H          -4.4253   -1.7244    0.0127 H       1  UNL1        0.0428
     20 H          -5.3992   -0.2925   -0.2203 H       1  UNL1        0.0428
     21 H          -4.3424   -0.8235   -1.5344 H       1  UNL1        0.0428
     22 H          -3.2729    2.0581   -0.7044 H       1  UNL1        0.0428
     23 H          -3.1657    1.9607    1.0810 H       1  UNL1        0.0428
     24 H          -4.6991    1.7111    0.2796 H       1  UNL1        0.0428
     25 H          -1.0784    1.5400    0.5959 H       1  UNL1        0.0643
     26 H           5.1919   -1.9625   -0.7062 H       1  UNL1        0.0851
     27 H           1.5921    2.7416    0.9979 H       1  UNL1        0.0638
     28 H           4.0901    2.9549    1.0629 H       1  UNL1        0.0619
     29 H           5.5900    1.1068    0.3928 H       1  UNL1        0.0639
     30 H          -0.1827   -3.1162   -1.0709 H       1  UNL1        0.0625
     31 H          -2.4840   -2.3435   -0.7718 H       1  UNL1        0.0636
@<TRIPOS>BOND
     1     1     2    1
     2     2     3    1
     3     2     4    1
     4     4     5   ar
     5     5     6   ar
     6     6     7   ar
     7     7     8   ar
     8     8     9   ar
     9     9    10   ar
    10    10    11   ar
    11    11    12   ar
    12    12    13   ar
    13    13    14   ar
    14    14    15   ar
    15    15    16   ar
    16     7    17   ar
    17    17    18   ar
    18    18     4   ar
    19    13     6   ar
    20    12     8   ar
    21    16    11   ar
    22     1    19    1
    23     1    20    1
    24     1    21    1
    25     3    22    1
    26     3    23    1
    27     3    24    1
    28     5    25    1
    29    10    26    1
    30    14    27    1
    31    15    28    1
    32    16    29    1
    33    17    30    1
    34    18    31    1
