@<TRIPOS>MOLECULE
*****
 28 29 0 0 0
SMALL
GASTEIGER

@<TRIPOS>ATOM
      1 C          -3.7128    0.2430   -1.5667 C.3     1  UNL1        0.0004
      2 N          -2.8184   -0.5896   -0.7644 N.pl3   1  UNL1       -0.3360
      3 C          -2.9915   -2.0329   -0.9219 C.3     1  UNL1        0.0004
      4 C          -1.5538   -0.0949   -0.4178 C.ar    1  UNL1        0.0298
      5 C          -0.5623   -0.9143    0.1566 C.ar    1  UNL1       -0.0330
      6 C           0.7130   -0.4358    0.5276 C.ar    1  UNL1       -0.0161
      7 C           1.6834   -1.2825    1.0904 C.ar    1  UNL1       -0.0528
      8 C           2.9409   -0.7916    1.4509 C.ar    1  UNL1       -0.0457
      9 C           3.2454    0.5540    1.2546 C.ar    1  UNL1        0.0253
     10 C           4.5322    1.0593    1.6231 C.1     1  UNL1       -0.0696
     11 C           5.6122    1.4836    1.9324 C.1     1  UNL1       -0.1139
     12 C           2.2907    1.4083    0.6984 C.ar    1  UNL1       -0.0386
     13 C           1.0229    0.9233    0.3324 C.ar    1  UNL1       -0.0166
     14 C           0.0494    1.7597   -0.2199 C.ar    1  UNL1       -0.0522
     15 C          -1.2096    1.2571   -0.5789 C.ar    1  UNL1       -0.0401
     16 H          -4.6698   -0.2605   -1.7448 H       1  UNL1        0.0428
     17 H          -3.2706    0.4687   -2.5433 H       1  UNL1        0.0428
     18 H          -3.9588    1.1759   -1.0480 H       1  UNL1        0.0428
     19 H          -2.8363   -2.5564    0.0274 H       1  UNL1        0.0428
     20 H          -2.3083   -2.4319   -1.6798 H       1  UNL1        0.0428
     21 H          -4.0119   -2.2801   -1.2363 H       1  UNL1        0.0428
     22 H          -0.7685   -1.9650    0.3379 H       1  UNL1        0.0642
     23 H           1.4652   -2.3357    1.2527 H       1  UNL1        0.0624
     24 H           3.6757   -1.4656    1.8844 H       1  UNL1        0.0630
     25 H           6.5699    1.8600    2.2069 H       1  UNL1        0.1232
     26 H           2.5344    2.4581    0.5500 H       1  UNL1        0.0636
     27 H           0.2537    2.8165   -0.3755 H       1  UNL1        0.0624
     28 H          -1.9165    1.9694   -0.9928 H       1  UNL1        0.0636
@<TRIPOS>BOND
     1     1     2    1
     2     2     3    1
     3     2     4    1
     4     4     5   ar
     5     5     6   ar
     6     6     7   ar
     7     7     8   ar
     8     8     9   ar
     9     9    10    1
    10    10    11    3
    11     9    12   ar
    12    12    13   ar
    13    13    14   ar
    14    14    15   ar
    15    15     4   ar
    16    13     6   ar
    17     1    16    1
    18     1    17    1
    19     1    18    1
    20     3    19    1
    21     3    20    1
    22     3    21    1
    23     5    22    1
    24     7    23    1
    25     8    24    1
    26    11    25    1
    27    12    26    1
    28    14    27    1
    29    15    28    1
