@<TRIPOS>MOLECULE
*****
 35 36 0 0 0
SMALL
GASTEIGER

@<TRIPOS>ATOM
      1 C           3.2683    2.1123    1.2132 C.3     1  UNL1        0.0004
      2 N           3.5600    0.7824    0.6703 N.pl3   1  UNL1       -0.3349
      3 C           4.5630    0.7590   -0.3965 C.3     1  UNL1        0.0004
      4 C           2.4091    0.0065    0.4171 C.ar    1  UNL1        0.0516
      5 C           2.2123   -1.0811    1.2729 C.ar    1  UNL1       -0.0211
      6 C           1.1084   -1.8883    1.0946 C.ar    1  UNL1        0.0315
      7 N           0.1902   -1.6940    0.1284 N.ar    1  UNL1       -0.2391
      8 C           0.3498   -0.6455   -0.7105 C.ar    1  UNL1        0.1383
      9 N          -0.6239   -0.4215   -1.7012 N.pl3   1  UNL1       -0.3239
     10 C          -1.7980   -1.2870   -1.6893 C.3     1  UNL1        0.0357
     11 C          -2.8536   -0.7584   -0.7456 C.ar    1  UNL1       -0.0304
     12 C          -3.1762   -1.4537    0.4281 C.ar    1  UNL1       -0.0571
     13 C          -4.1566   -0.9672    1.2948 C.ar    1  UNL1       -0.0615
     14 C          -4.8220    0.2213    0.9995 C.ar    1  UNL1       -0.0617
     15 C          -4.5041    0.9277   -0.1590 C.ar    1  UNL1       -0.0615
     16 C          -3.5239    0.4422   -1.0262 C.ar    1  UNL1       -0.0571
     17 C           1.4506    0.2273   -0.5946 C.ar    1  UNL1        0.1123
     18 C           1.5631    1.3248   -1.5074 C.1     1  UNL1        0.1045
     19 N           1.6763    2.1971   -2.2675 N.1     1  UNL1       -0.1907
     20 H           2.8693    2.7921    0.4540 H       1  UNL1        0.0428
     21 H           4.1885    2.5564    1.6086 H       1  UNL1        0.0428
     22 H           2.5563    2.0516    2.0442 H       1  UNL1        0.0428
     23 H           4.7320   -0.2617   -0.7582 H       1  UNL1        0.0428
     24 H           4.2873    1.3949   -1.2428 H       1  UNL1        0.0428
     25 H           5.5187    1.1246   -0.0051 H       1  UNL1        0.0428
     26 H           2.9183   -1.2889    2.0706 H       1  UNL1        0.0652
     27 H           0.9267   -2.7389    1.7449 H       1  UNL1        0.0831
     28 H          -0.1895   -0.3932   -2.6188 H       1  UNL1        0.1478
     29 H          -2.2327   -1.2867   -2.6976 H       1  UNL1        0.0511
     30 H          -1.5520   -2.3374   -1.4891 H       1  UNL1        0.0511
     31 H          -2.6511   -2.3733    0.6777 H       1  UNL1        0.0621
     32 H          -4.3951   -1.5129    2.2035 H       1  UNL1        0.0618
     33 H          -5.5821    0.6014    1.6765 H       1  UNL1        0.0618
     34 H          -5.0142    1.8600   -0.3852 H       1  UNL1        0.0618
     35 H          -3.2733    1.0079   -1.9208 H       1  UNL1        0.0621
@<TRIPOS>BOND
     1     1     2    1
     2     2     3    1
     3     2     4    1
     4     4     5   ar
     5     5     6   ar
     6     6     7   ar
     7     7     8   ar
     8     8     9    1
     9     9    10    1
    10    10    11    1
    11    11    12   ar
    12    12    13   ar
    13    13    14   ar
    14    14    15   ar
    15    15    16   ar
    16     8    17   ar
    17    17    18    1
    18    18    19    3
    19    17     4   ar
    20    16    11   ar
    21     1    20    1
    22     1    21    1
    23     1    22    1
    24     3    23    1
    25     3    24    1
    26     3    25    1
    27     5    26    1
    28     6    27    1
    29     9    28    1
    30    10    29    1
    31    10    30    1
    32    12    31    1
    33    13    32    1
    34    14    33    1
    35    15    34    1
    36    16    35    1
