@<TRIPOS>MOLECULE
*****
 31 32 0 0 0
SMALL
GASTEIGER

@<TRIPOS>ATOM
      1 C          -4.1583   -1.0727    1.6450 C.3     1  UNL1        0.0044
      2 N          -2.7343   -1.3745    1.5606 N.pl3   1  UNL1       -0.2911
      3 C          -2.4007   -2.7707    1.3042 C.3     1  UNL1        0.0044
      4 C          -1.8068   -0.3927    1.2689 C.ar    1  UNL1        0.2941
      5 N          -0.5793   -0.6500    0.9549 N.ar    1  UNL1       -0.1817
      6 C           0.2767    0.3806    0.6803 C.ar    1  UNL1        0.1526
      7 N           1.5886    0.0254    0.3658 N.pl3   1  UNL1       -0.2981
      8 C           2.1913    0.2892   -0.8951 C.ar    1  UNL1        0.0324
      9 C           1.4553    0.4336   -2.0785 C.ar    1  UNL1       -0.0405
     10 C           2.1057    0.6227   -3.3009 C.ar    1  UNL1       -0.0600
     11 C           3.4976    0.6467   -3.3562 C.ar    1  UNL1       -0.0616
     12 C           4.2409    0.4717   -2.1915 C.ar    1  UNL1       -0.0600
     13 C           3.5901    0.2821   -0.9707 C.ar    1  UNL1       -0.0405
     14 C          -0.1260    1.6609    0.7687 C.ar    1  UNL1        0.1758
     15 C           0.7313    2.7744    0.5718 C.1     1  UNL1        0.1099
     16 N           1.4301    3.6899    0.4191 N.1     1  UNL1       -0.1905
     17 C          -1.5211    1.9107    1.1119 C.ar    1  UNL1        0.3603
     18 O          -1.9717    3.0508    1.1803 O.2     1  UNL1       -0.2435
     19 O          -2.3203    0.8521    1.3485 O.2     1  UNL1       -0.3899
     20 H          -4.5533   -0.8236    0.6547 H       1  UNL1        0.0429
     21 H          -4.7269   -1.9233    2.0358 H       1  UNL1        0.0429
     22 H          -4.3430   -0.2322    2.3225 H       1  UNL1        0.0429
     23 H          -3.1047   -3.4469    1.8008 H       1  UNL1        0.0429
     24 H          -1.4042   -3.0163    1.6869 H       1  UNL1        0.0429
     25 H          -2.4261   -2.9760    0.2290 H       1  UNL1        0.0429
     26 H           1.6629   -0.9826    0.5222 H       1  UNL1        0.1536
     27 H           0.3702    0.3905   -2.0717 H       1  UNL1        0.0636
     28 H           1.5249    0.7467   -4.2112 H       1  UNL1        0.0618
     29 H           4.0028    0.7978   -4.3066 H       1  UNL1        0.0618
     30 H           5.3268    0.4859   -2.2307 H       1  UNL1        0.0618
     31 H           4.1816    0.1498   -0.0678 H       1  UNL1        0.0636
@<TRIPOS>BOND
     1     1     2    1
     2     2     3    1
     3     2     4    1
     4     4     5   ar
     5     5     6   ar
     6     6     7    1
     7     7     8    1
     8     8     9   ar
     9     9    10   ar
    10    10    11   ar
    11    11    12   ar
    12    12    13   ar
    13     6    14   ar
    14    14    15    1
    15    15    16    3
    16    14    17   ar
    17    17    18    2
    18    17    19   ar
    19    19     4   ar
    20    13     8   ar
    21     1    20    1
    22     1    21    1
    23     1    22    1
    24     3    23    1
    25     3    24    1
    26     3    25    1
    27     7    26    1
    28     9    27    1
    29    10    28    1
    30    11    29    1
    31    12    30    1
    32    13    31    1
