@<TRIPOS>MOLECULE
*****
 41 43 0 0 0
SMALL
GASTEIGER

@<TRIPOS>ATOM
      1 C          -5.2365   -1.3573    4.7011 C.3     1  UNL1        0.0031
      2 N          -3.8725   -1.2083    4.2067 N.pl3   1  UNL1       -0.3052
      3 C          -2.9459   -2.2829    4.5543 C.3     1  UNL1        0.0031
      4 C          -3.6416   -0.4989    3.0630 C.ar    1  UNL1        0.2270
      5 O          -2.4033   -0.6346    2.4848 O.2     1  UNL1       -0.4204
      6 C          -2.4273    0.1704    1.3792 C.ar    1  UNL1        0.2307
      7 C          -1.2134    0.2098    0.5679 C.ar    1  UNL1        0.0372
      8 C          -0.0675   -0.5205    0.9075 C.ar    1  UNL1       -0.0460
      9 C           1.0778   -0.4599    0.1067 C.ar    1  UNL1       -0.0192
     10 C           1.1038    0.3283   -1.0454 C.ar    1  UNL1        0.1210
     11 O           2.2849    0.2941   -1.7315 O.3     1  UNL1       -0.4874
     12 C           2.3725    1.0810   -2.9166 C.3     1  UNL1        0.1146
     13 C           3.7507    0.8955   -3.5017 C.ar    1  UNL1       -0.0104
     14 C           4.8022    1.7453   -3.1304 C.ar    1  UNL1       -0.0554
     15 C           6.0800    1.5642   -3.6625 C.ar    1  UNL1       -0.0614
     16 C           6.3212    0.5279   -4.5624 C.ar    1  UNL1       -0.0617
     17 C           5.2871   -0.3323   -4.9270 C.ar    1  UNL1       -0.0614
     18 C           4.0085   -0.1530   -4.3962 C.ar    1  UNL1       -0.0554
     19 C          -0.0304    1.0596   -1.3931 C.ar    1  UNL1       -0.0192
     20 C          -1.1781    0.9993   -0.5912 C.ar    1  UNL1       -0.0460
     21 N          -3.5679    0.8056    1.1973 N.ar    1  UNL1       -0.1963
     22 C          -4.3370    0.3918    2.2634 C.ar    1  UNL1        0.2010
     23 C          -5.6691    0.8716    2.4270 C.1     1  UNL1        0.1244
     24 N          -6.7612    1.2407    2.5752 N.1     1  UNL1       -0.1891
     25 H          -5.8586   -1.8931    3.9760 H       1  UNL1        0.0428
     26 H          -5.2585   -1.9192    5.6416 H       1  UNL1        0.0428
     27 H          -5.6847   -0.3818    4.9144 H       1  UNL1        0.0428
     28 H          -3.1378   -2.6548    5.5669 H       1  UNL1        0.0428
     29 H          -3.0492   -3.1219    3.8576 H       1  UNL1        0.0428
     30 H          -1.9065   -1.9358    4.5423 H       1  UNL1        0.0428
     31 H          -0.0495   -1.1443    1.7984 H       1  UNL1        0.0626
     32 H           1.9594   -1.0333    0.3849 H       1  UNL1        0.0654
     33 H           1.6218    0.7610   -3.6504 H       1  UNL1        0.0748
     34 H           2.2146    2.1429   -2.6891 H       1  UNL1        0.0748
     35 H           4.6317    2.5500   -2.4188 H       1  UNL1        0.0621
     36 H           6.8889    2.2284   -3.3696 H       1  UNL1        0.0618
     37 H           7.3172    0.3856   -4.9734 H       1  UNL1        0.0618
     38 H           5.4776   -1.1472   -5.6202 H       1  UNL1        0.0618
     39 H           3.2139   -0.8399   -4.6789 H       1  UNL1        0.0621
     40 H          -0.0632    1.6873   -2.2774 H       1  UNL1        0.0654
     41 H          -2.0545    1.5787   -0.8803 H       1  UNL1        0.0626
@<TRIPOS>BOND
     1     1     2    1
     2     2     3    1
     3     2     4    1
     4     4     5   ar
     5     5     6   ar
     6     6     7    1
     7     7     8   ar
     8     8     9   ar
     9     9    10   ar
    10    10    11    1
    11    11    12    1
    12    12    13    1
    13    13    14   ar
    14    14    15   ar
    15    15    16   ar
    16    16    17   ar
    17    17    18   ar
    18    10    19   ar
    19    19    20   ar
    20     6    21   ar
    21    21    22   ar
    22    22    23    1
    23    23    24    3
    24    22     4   ar
    25    20     7   ar
    26    18    13   ar
    27     1    25    1
    28     1    26    1
    29     1    27    1
    30     3    28    1
    31     3    29    1
    32     3    30    1
    33     8    31    1
    34     9    32    1
    35    12    33    1
    36    12    34    1
    37    14    35    1
    38    15    36    1
    39    16    37    1
    40    17    38    1
    41    18    39    1
    42    19    40    1
    43    20    41    1
