@<TRIPOS>MOLECULE
*****
 33 32 0 0 0
SMALL
GASTEIGER

@<TRIPOS>ATOM
      1 C           3.9355    1.2612   -0.9487 C.3     1  UNL1       -0.0122
      2 N           4.2787    0.0090   -0.2685 N.3     1  UNL1       -0.2977
      3 C           5.7155   -0.0272    0.0070 C.3     1  UNL1       -0.0122
      4 C           3.5233   -0.1464    0.9855 C.3     1  UNL1        0.0605
      5 C           2.0904   -0.3714    0.7414 C.1     1  UNL1       -0.0844
      6 C           0.9180   -0.5522    0.5466 C.1     1  UNL1       -0.0727
      7 C          -0.5095   -0.7693    0.2915 C.3     1  UNL1        0.1084
      8 O          -1.0774   -1.4543    1.4084 O.3     1  UNL1       -0.3651
      9 C          -2.3440   -2.0544    1.1236 C.3     1  UNL1        0.0722
     10 C          -3.4601   -1.0245    0.9374 C.3     1  UNL1        0.0711
     11 O          -3.4069   -0.4923   -0.3923 O.3     1  UNL1       -0.3765
     12 C          -4.3898    0.5252   -0.5975 C.3     1  UNL1        0.0605
     13 C          -4.2462    1.0860   -2.0070 C.3     1  UNL1        0.0582
     14 C          -3.0694    1.9589   -2.1065 C.1     1  UNL1        0.0648
     15 N          -2.1545    2.6686   -2.1875 N.1     1  UNL1       -0.1965
     16 H           2.8805    1.2819   -1.2411 H       1  UNL1        0.0391
     17 H           4.5098    1.3598   -1.8776 H       1  UNL1        0.0391
     18 H           4.1398    2.1399   -0.3257 H       1  UNL1        0.0391
     19 H           5.9976   -0.9818    0.4657 H       1  UNL1        0.0391
     20 H           6.2883    0.0510   -0.9242 H       1  UNL1        0.0391
     21 H           6.0302    0.7835    0.6749 H       1  UNL1        0.0391
     22 H           3.9010   -1.0203    1.5321 H       1  UNL1        0.0563
     23 H           3.6635    0.7224    1.6412 H       1  UNL1        0.0563
     24 H          -1.0094    0.1960    0.1662 H       1  UNL1        0.0697
     25 H          -0.6322   -1.3603   -0.6230 H       1  UNL1        0.0697
     26 H          -2.5836   -2.6755    1.9929 H       1  UNL1        0.0583
     27 H          -2.2521   -2.7152    0.2539 H       1  UNL1        0.0583
     28 H          -3.3484   -0.2101    1.6620 H       1  UNL1        0.0583
     29 H          -4.4321   -1.5108    1.0737 H       1  UNL1        0.0583
     30 H          -5.3825    0.0735   -0.4878 H       1  UNL1        0.0570
     31 H          -4.2753    1.3142    0.1560 H       1  UNL1        0.0570
     32 H          -4.1577    0.2697   -2.7328 H       1  UNL1        0.0440
     33 H          -5.1411    1.6657   -2.2590 H       1  UNL1        0.0440
@<TRIPOS>BOND
     1     1     2    1
     2     2     3    1
     3     2     4    1
     4     4     5    1
     5     5     6    3
     6     6     7    1
     7     7     8    1
     8     8     9    1
     9     9    10    1
    10    10    11    1
    11    11    12    1
    12    12    13    1
    13    13    14    1
    14    14    15    3
    15     1    16    1
    16     1    17    1
    17     1    18    1
    18     3    19    1
    19     3    20    1
    20     3    21    1
    21     4    22    1
    22     4    23    1
    23     7    24    1
    24     7    25    1
    25     9    26    1
    26     9    27    1
    27    10    28    1
    28    10    29    1
    29    12    30    1
    30    12    31    1
    31    13    32    1
    32    13    33    1
