@<TRIPOS>MOLECULE
*****
 37 37 0 0 0
SMALL
GASTEIGER

@<TRIPOS>ATOM
      1 C          -4.5394    0.8058   -0.3035 C.3     1  UNL1       -0.0130
      2 N          -3.2240    0.2373   -0.6125 N.3     1  UNL1       -0.3066
      3 C          -2.7955    0.6779   -1.9391 C.3     1  UNL1       -0.0130
      4 C          -2.2634    0.5703    0.4619 C.3     1  UNL1        0.0176
      5 C          -0.8231   -0.0685    0.4019 C.3     1  UNL1        0.0470
      6 C          -0.1419    0.2042    1.7563 C.3     1  UNL1       -0.0443
      7 C          -0.9330   -1.5795    0.1864 C.3     1  UNL1       -0.0443
      8 N          -0.0367    0.6397   -0.6360 N.3     1  UNL1       -0.1832
      9 S           1.1900    0.0441   -1.5899 S.O2    1  UNL1        0.0589
     10 O           1.5837    1.1473   -2.4406 O.2     1  UNL1       -0.1530
     11 O           0.7987   -1.2268   -2.1528 O.2     1  UNL1       -0.1530
     12 C           2.5234   -0.2228   -0.4496 C.ar    1  UNL1        0.1053
     13 C           2.9367   -1.5233   -0.1440 C.ar    1  UNL1       -0.0340
     14 C           3.9986   -1.7166    0.7423 C.ar    1  UNL1       -0.0415
     15 C           4.6445   -0.6141    1.3040 C.ar    1  UNL1        0.0411
     16 CL          5.9504   -0.8569    2.3973 Cl      1  UNL1       -0.0835
     17 C           4.2438    0.6839    0.9835 C.ar    1  UNL1       -0.0415
     18 C           3.1825    0.8840    0.0985 C.ar    1  UNL1       -0.0340
     19 H          -5.2780    0.5029   -1.0543 H       1  UNL1        0.0391
     20 H          -4.5155    1.9008   -0.2638 H       1  UNL1        0.0391
     21 H          -4.9067    0.4323    0.6590 H       1  UNL1        0.0391
     22 H          -1.9298    0.1087   -2.2867 H       1  UNL1        0.0391
     23 H          -3.5809    0.4910   -2.6810 H       1  UNL1        0.0391
     24 H          -2.5562    1.7468   -1.9625 H       1  UNL1        0.0391
     25 H          -2.7159    0.2380    1.4070 H       1  UNL1        0.0445
     26 H          -2.1654    1.6629    0.5383 H       1  UNL1        0.0445
     27 H           0.8483   -0.2566    1.8134 H       1  UNL1        0.0248
     28 H          -0.7320   -0.2004    2.5865 H       1  UNL1        0.0248
     29 H          -0.0145    1.2795    1.9275 H       1  UNL1        0.0248
     30 H           0.0383   -2.0756    0.2715 H       1  UNL1        0.0248
     31 H          -1.5858   -2.0331    0.9416 H       1  UNL1        0.0248
     32 H          -1.3490   -1.8268   -0.7953 H       1  UNL1        0.0248
     33 H          -0.2511    1.6194   -0.8132 H       1  UNL1        0.1487
     34 H           2.4429   -2.3847   -0.5893 H       1  UNL1        0.0637
     35 H           4.3205   -2.7262    0.9860 H       1  UNL1        0.0633
     36 H           4.7574    1.5400    1.4137 H       1  UNL1        0.0633
     37 H           2.8780    1.8951   -0.1625 H       1  UNL1        0.0637
@<TRIPOS>BOND
     1     1     2    1
     2     2     3    1
     3     2     4    1
     4     4     5    1
     5     5     6    1
     6     5     7    1
     7     5     8    1
     8     8     9    1
     9     9    10    2
    10     9    11    2
    11     9    12    1
    12    12    13   ar
    13    13    14   ar
    14    14    15   ar
    15    15    16    1
    16    15    17   ar
    17    17    18   ar
    18    18    12   ar
    19     1    19    1
    20     1    20    1
    21     1    21    1
    22     3    22    1
    23     3    23    1
    24     3    24    1
    25     4    25    1
    26     4    26    1
    27     6    27    1
    28     6    28    1
    29     6    29    1
    30     7    30    1
    31     7    31    1
    32     7    32    1
    33     8    33    1
    34    13    34    1
    35    14    35    1
    36    17    36    1
    37    18    37    1
