@<TRIPOS>MOLECULE
*****
 42 43 0 0 0
SMALL
GASTEIGER

@<TRIPOS>ATOM
      1 C          -4.4875    0.5310   -1.7030 C.3     1  UNL1       -0.0130
      2 N          -4.2919    1.0570   -0.3496 N.3     1  UNL1       -0.3083
      3 C          -5.5893    1.1663    0.3250 C.3     1  UNL1       -0.0130
      4 C          -3.3794    0.2189    0.4467 C.3     1  UNL1       -0.0003
      5 C          -1.9319    0.2692   -0.0557 C.3     1  UNL1       -0.0247
      6 C          -1.0020   -0.4852    0.8939 C.3     1  UNL1        0.0101
      7 N           0.3616   -0.4521    0.3806 N.pl3   1  UNL1       -0.3438
      8 C           1.4337   -1.1433    0.9087 C.2     1  UNL1        0.0548
      9 C           1.3878   -2.1395    1.7936 C.2     1  UNL1        0.0431
     10 C           2.7490   -2.5906    2.0378 C.2     1  UNL1        0.3344
     11 O           3.0572   -3.4869    2.8016 O.2     1  UNL1       -0.2455
     12 O           3.6046   -1.8599    1.2836 O.3     1  UNL1       -0.4489
     13 C           2.8748   -0.8759    0.5175 C.3     1  UNL1        0.1512
     14 C           3.1807   -1.1511   -0.9652 C.3     1  UNL1       -0.0073
     15 C           2.8085   -0.0005   -1.8964 C.3     1  UNL1       -0.0491
     16 C           3.4200    1.3176   -1.4340 C.3     1  UNL1       -0.0528
     17 C           3.0599    1.6453    0.0110 C.3     1  UNL1       -0.0491
     18 C           3.4069    0.5004    0.9589 C.3     1  UNL1       -0.0073
     19 H          -4.8685   -0.4966   -1.6958 H       1  UNL1        0.0391
     20 H          -5.1972    1.1548   -2.2588 H       1  UNL1        0.0391
     21 H          -3.5561    0.5538   -2.2769 H       1  UNL1        0.0391
     22 H          -5.4715    1.6152    1.3176 H       1  UNL1        0.0391
     23 H          -6.0776    0.1918    0.4415 H       1  UNL1        0.0391
     24 H          -6.2616    1.8255   -0.2356 H       1  UNL1        0.0391
     25 H          -3.3805    0.5845    1.4821 H       1  UNL1        0.0427
     26 H          -3.7310   -0.8208    0.4769 H       1  UNL1        0.0427
     27 H          -1.6021    1.3127   -0.1408 H       1  UNL1        0.0293
     28 H          -1.8527   -0.1732   -1.0556 H       1  UNL1        0.0293
     29 H          -1.0271   -0.0263    1.8890 H       1  UNL1        0.0461
     30 H          -1.3409   -1.5235    0.9884 H       1  UNL1        0.0461
     31 H           0.6008    0.4081   -0.1053 H       1  UNL1        0.1459
     32 H           0.5353   -2.5884    2.2679 H       1  UNL1        0.0705
     33 H           2.6806   -2.0703   -1.2968 H       1  UNL1        0.0307
     34 H           4.2550   -1.3557   -1.0747 H       1  UNL1        0.0307
     35 H           3.1613   -0.2273   -2.9094 H       1  UNL1        0.0267
     36 H           1.7202    0.0979   -1.9660 H       1  UNL1        0.0267
     37 H           4.5115    1.2629   -1.5306 H       1  UNL1        0.0265
     38 H           3.0850    2.1293   -2.0898 H       1  UNL1        0.0265
     39 H           1.9965    1.8927    0.0834 H       1  UNL1        0.0267
     40 H           3.6013    2.5467    0.3221 H       1  UNL1        0.0267
     41 H           4.5013    0.4440    1.0447 H       1  UNL1        0.0307
     42 H           3.0554    0.7414    1.9706 H       1  UNL1        0.0307
@<TRIPOS>BOND
     1     1     2    1
     2     2     3    1
     3     2     4    1
     4     4     5    1
     5     5     6    1
     6     6     7    1
     7     7     8    1
     8     8     9    2
     9     9    10    1
    10    10    11    2
    11    10    12    1
    12    12    13    1
    13    13    14    1
    14    14    15    1
    15    15    16    1
    16    16    17    1
    17    17    18    1
    18    13     8    1
    19    18    13    1
    20     1    19    1
    21     1    20    1
    22     1    21    1
    23     3    22    1
    24     3    23    1
    25     3    24    1
    26     4    25    1
    27     4    26    1
    28     5    27    1
    29     5    28    1
    30     6    29    1
    31     6    30    1
    32     7    31    1
    33     9    32    1
    34    14    33    1
    35    14    34    1
    36    15    35    1
    37    15    36    1
    38    16    37    1
    39    16    38    1
    40    17    39    1
    41    17    40    1
    42    18    41    1
    43    18    42    1
