@<TRIPOS>MOLECULE
*****
 40 41 0 0 0
SMALL
GASTEIGER

@<TRIPOS>ATOM
      1 C           5.7976    1.1855   -2.6427 C.3     1  UNL1        0.0004
      2 N           5.0855    1.7508   -1.4978 N.pl3   1  UNL1       -0.3360
      3 C           3.8664    1.1815   -1.1096 C.ar    1  UNL1        0.0292
      4 C           2.9942    1.8205   -0.2113 C.ar    1  UNL1       -0.0401
      5 C           1.7767    1.2487    0.1927 C.ar    1  UNL1       -0.0528
      6 C           1.3808    0.0024   -0.2900 C.ar    1  UNL1       -0.0248
      7 C           2.2430   -0.6694   -1.1544 C.ar    1  UNL1       -0.0528
      8 C           3.4576   -0.0882   -1.5529 C.ar    1  UNL1       -0.0401
      9 C           0.1320   -0.6477    0.1278 C.2     1  UNL1       -0.0511
     10 C          -1.0335    0.0027    0.2839 C.2     1  UNL1       -0.0188
     11 C          -2.2847   -0.6135    0.6862 C.2     1  UNL1        0.1286
     12 C          -3.4252    0.0898    0.8147 C.2     1  UNL1       -0.0102
     13 C          -4.6638   -0.5887    1.2266 C.2     1  UNL1        0.0093
     14 C          -4.5595   -2.0336    1.4747 C.2     1  UNL1       -0.0147
     15 C          -3.3765   -2.6554    1.3215 C.2     1  UNL1        0.1032
     16 C          -3.1753   -4.1191    1.5520 C.3     1  UNL1       -0.0063
     17 O          -2.2242   -1.9820    0.9311 O.2     1  UNL1       -0.4605
     18 C          -5.8372    0.0815    1.3697 C.2     1  UNL1        0.1354
     19 C          -7.0390   -0.5744    1.7684 C.1     1  UNL1        0.1108
     20 N          -8.0086   -1.1231    2.0938 N.1     1  UNL1       -0.1901
     21 C          -5.9417    1.4834    1.1311 C.1     1  UNL1        0.1108
     22 N          -6.0089    2.6252    0.9335 N.1     1  UNL1       -0.1901
     23 C           5.3076    3.1760   -1.2592 C.3     1  UNL1        0.0004
     24 H           6.0926    0.1479   -2.4536 H       1  UNL1        0.0428
     25 H           6.7284    1.7295   -2.8396 H       1  UNL1        0.0428
     26 H           5.1869    1.2363   -3.5509 H       1  UNL1        0.0428
     27 H           3.2412    2.7882    0.2142 H       1  UNL1        0.0636
     28 H           1.1586    1.7915    0.9033 H       1  UNL1        0.0624
     29 H           1.9841   -1.6540   -1.5371 H       1  UNL1        0.0624
     30 H           4.0785   -0.6726   -2.2247 H       1  UNL1        0.0636
     31 H           0.1960   -1.7215    0.2885 H       1  UNL1        0.0625
     32 H          -1.0734    1.0725    0.0872 H       1  UNL1        0.0654
     33 H          -3.4239    1.1568    0.6122 H       1  UNL1        0.0661
     34 H          -5.4276   -2.6099    1.7820 H       1  UNL1        0.0657
     35 H          -2.8195   -4.6002    0.6353 H       1  UNL1        0.0308
     36 H          -2.4302   -4.2787    2.3379 H       1  UNL1        0.0308
     37 H          -4.1002   -4.6187    1.8578 H       1  UNL1        0.0308
     38 H           5.2981    3.4052   -0.1882 H       1  UNL1        0.0428
     39 H           4.5551    3.7838   -1.7736 H       1  UNL1        0.0428
     40 H           6.2919    3.4914   -1.6234 H       1  UNL1        0.0428
@<TRIPOS>BOND
     1     1     2    1
     2     2     3    1
     3     3     4   ar
     4     4     5   ar
     5     5     6   ar
     6     6     7   ar
     7     7     8   ar
     8     6     9    1
     9     9    10    2
    10    10    11    1
    11    11    12    2
    12    12    13    1
    13    13    14    1
    14    14    15    2
    15    15    16    1
    16    15    17    1
    17    13    18    2
    18    18    19    1
    19    19    20    3
    20    18    21    1
    21    21    22    3
    22     2    23    1
    23     8     3   ar
    24    17    11    1
    25     1    24    1
    26     1    25    1
    27     1    26    1
    28     4    27    1
    29     5    28    1
    30     7    29    1
    31     8    30    1
    32     9    31    1
    33    10    32    1
    34    12    33    1
    35    14    34    1
    36    16    35    1
    37    16    36    1
    38    16    37    1
    39    23    38    1
    40    23    39    1
    41    23    40    1
