@<TRIPOS>MOLECULE
*****
 41 47 0 0 0
SMALL
GASTEIGER

@<TRIPOS>ATOM
      1 SI         -4.0708    2.7919   -0.6977 Si      1  UNL1        0.0000
      2 C          -5.7226    1.8721   -0.7917 C.2     1  UNL1        0.0000
      3 C          -5.5959    0.5367   -0.6638 C.2     1  UNL1        0.0000
      4 C          -4.2064    0.1299   -0.4816 C.ar    1  UNL1        0.0000
      5 C          -3.2277    1.1545   -0.4682 C.ar    1  UNL1        0.0000
      6 C          -1.8526    0.8764   -0.3120 C.ar    1  UNL1        0.0000
      7 N          -0.7428    1.7006   -0.3164 N.ar    1  UNL1        0.0000
      8 C           0.4219    0.9816   -0.1153 C.ar    1  UNL1        0.0000
      9 C           1.7657    1.4368   -0.0686 C.ar    1  UNL1        0.0000
     10 C           2.8264    0.5430    0.1920 C.ar    1  UNL1        0.0000
     11 C           4.2264    0.9394    0.2282 C.ar    1  UNL1        0.0000
     12 C           5.2864    0.4547   -0.5154 C.ar    1  UNL1        0.0000
     13 C           6.5188    1.0952   -0.1959 C.ar    1  UNL1        0.0000
     14 C           6.3615    2.0516    0.7812 C.ar    1  UNL1        0.0000
     15 S           4.7381    2.1746    1.3036 S.2     1  UNL1        0.0000
     16 C           2.3893   -0.7657    0.4254 C.ar    1  UNL1        0.0000
     17 C           3.1765   -1.8350    0.7998 C.ar    1  UNL1        0.0000
     18 N           2.3507   -2.9212    1.0055 N.ar    1  UNL1        0.0000
     19 C           1.0348   -2.5677    0.7844 C.ar    1  UNL1        0.0000
     20 C           1.0644   -1.2628    0.3931 C.ar    1  UNL1        0.0000
     21 C           0.0212   -0.3423    0.0587 C.ar    1  UNL1        0.0000
     22 C          -1.3506   -0.4200   -0.1279 C.ar    1  UNL1        0.0000
     23 C          -2.3114   -1.4875   -0.1945 C.ar    1  UNL1        0.0000
     24 C          -2.2040   -2.8431   -0.2072 C.ar    1  UNL1        0.0000
     25 O          -3.4653   -3.3772   -0.3144 O.2     1  UNL1        0.0000
     26 C          -4.3488   -2.3334   -0.4024 C.ar    1  UNL1        0.0000
     27 C          -3.6720   -1.1395   -0.3577 C.ar    1  UNL1        0.0000
     28 H          -3.7153    3.4510   -1.9790 H       1  UNL1        0.0000
     29 H          -3.9783    3.6667    0.4973 H       1  UNL1        0.0000
     30 H          -6.6427    2.4172   -0.9361 H       1  UNL1        0.0000
     31 H          -6.4141   -0.1685   -0.6907 H       1  UNL1        0.0000
     32 H          -0.7685    2.7003   -0.4516 H       1  UNL1        0.0000
     33 H           1.9818    2.4890   -0.2411 H       1  UNL1        0.0000
     34 H           5.1784   -0.3255   -1.2596 H       1  UNL1        0.0000
     35 H           7.4699    0.8662   -0.6603 H       1  UNL1        0.0000
     36 H           7.1207    2.6876    1.2150 H       1  UNL1        0.0000
     37 H           4.2404   -1.9266    0.9724 H       1  UNL1        0.0000
     38 H           2.6606   -3.8317    1.3198 H       1  UNL1        0.0000
     39 H           0.2540   -3.2813    0.9798 H       1  UNL1        0.0000
     40 H          -1.4121   -3.5711   -0.1896 H       1  UNL1        0.0000
     41 H          -5.3858   -2.6169   -0.5108 H       1  UNL1        0.0000
@<TRIPOS>BOND
     1     1     2    1
     2     2     3    2
     3     3     4    1
     4     4     5   ar
     5     5     6   ar
     6     6     7   ar
     7     7     8   ar
     8     8     9   ar
     9     9    10   ar
    10    10    11    1
    11    11    12   ar
    12    12    13   ar
    13    13    14   ar
    14    14    15   ar
    15    10    16   ar
    16    16    17   ar
    17    17    18   ar
    18    18    19   ar
    19    19    20   ar
    20    20    21   ar
    21    21    22   ar
    22    22    23   ar
    23    23    24   ar
    24    24    25   ar
    25    25    26   ar
    26    26    27   ar
    27     5     1    1
    28    22     6   ar
    29    27    23   ar
    30    27     4   ar
    31    21     8   ar
    32    15    11   ar
    33    20    16   ar
    34     1    28    1
    35     1    29    1
    36     2    30    1
    37     3    31    1
    38     7    32    1
    39     9    33    1
    40    12    34    1
    41    13    35    1
    42    14    36    1
    43    17    37    1
    44    18    38    1
    45    19    39    1
    46    24    40    1
    47    26    41    1
