@<TRIPOS>MOLECULE
*****
 34 35 0 0 0
SMALL
GASTEIGER

@<TRIPOS>ATOM
      1 C          -4.8504   -0.9872   -1.0821 C.3     1  UNL1        0.0004
      2 N          -4.0874    0.0557   -0.3981 N.pl3   1  UNL1       -0.3360
      3 C          -2.6917   -0.0482   -0.3399 C.ar    1  UNL1        0.0298
      4 C          -1.9744   -0.9333   -1.1607 C.ar    1  UNL1       -0.0401
      5 C          -0.5759   -1.0309   -1.1191 C.ar    1  UNL1       -0.0523
      6 C           0.1730   -0.2300   -0.2526 C.ar    1  UNL1       -0.0171
      7 C           1.5771   -0.3149   -0.1976 C.ar    1  UNL1       -0.0435
      8 C           2.3098    0.5005    0.6737 C.ar    1  UNL1        0.0180
      9 C           3.8019    0.4420    0.7637 C.2     1  UNL1        0.1629
     10 C           4.5483   -0.5293   -0.1355 C.3     1  UNL1        0.0076
     11 C           6.0538   -0.4615    0.0664 C.3     1  UNL1       -0.0582
     12 O           4.3835    1.1772    1.5594 O.2     1  UNL1       -0.2921
     13 C           1.6290    1.4065    1.4936 C.ar    1  UNL1       -0.0507
     14 C           0.2357    1.4968    1.4441 C.ar    1  UNL1       -0.0533
     15 C          -0.5068    0.6824    0.5753 C.ar    1  UNL1       -0.0161
     16 C          -1.9149    0.7598    0.5126 C.ar    1  UNL1       -0.0330
     17 C          -4.7933    0.7490    0.6785 C.3     1  UNL1        0.0004
     18 H          -5.9258   -0.7791   -1.0500 H       1  UNL1        0.0428
     19 H          -4.5879   -1.0387   -2.1442 H       1  UNL1        0.0428
     20 H          -4.6888   -1.9645   -0.6140 H       1  UNL1        0.0428
     21 H          -2.4861   -1.5794   -1.8674 H       1  UNL1        0.0636
     22 H          -0.0853   -1.7415   -1.7804 H       1  UNL1        0.0624
     23 H           2.0790   -1.0265   -0.8467 H       1  UNL1        0.0631
     24 H           4.3230   -0.2884   -1.1798 H       1  UNL1        0.0342
     25 H           4.2095   -1.5469    0.0858 H       1  UNL1        0.0342
     26 H           6.5589   -1.1714   -0.5958 H       1  UNL1        0.0234
     27 H           6.3236   -0.7057    1.0992 H       1  UNL1        0.0234
     28 H           6.4353    0.5414   -0.1523 H       1  UNL1        0.0234
     29 H           2.1790    2.0507    2.1777 H       1  UNL1        0.0625
     30 H          -0.2660    2.2118    2.0930 H       1  UNL1        0.0624
     31 H          -2.3997    1.4864    1.1581 H       1  UNL1        0.0642
     32 H          -5.8771    0.7373    0.5166 H       1  UNL1        0.0428
     33 H          -4.5996    0.2740    1.6466 H       1  UNL1        0.0428
     34 H          -4.5092    1.8059    0.7222 H       1  UNL1        0.0428
@<TRIPOS>BOND
     1     1     2    1
     2     2     3    1
     3     3     4   ar
     4     4     5   ar
     5     5     6   ar
     6     6     7   ar
     7     7     8   ar
     8     8     9    1
     9     9    10    1
    10    10    11    1
    11     9    12    2
    12     8    13   ar
    13    13    14   ar
    14    14    15   ar
    15    15    16   ar
    16     2    17    1
    17    16     3   ar
    18    15     6   ar
    19     1    18    1
    20     1    19    1
    21     1    20    1
    22     4    21    1
    23     5    22    1
    24     7    23    1
    25    10    24    1
    26    10    25    1
    27    11    26    1
    28    11    27    1
    29    11    28    1
    30    13    29    1
    31    14    30    1
    32    16    31    1
    33    17    32    1
    34    17    33    1
    35    17    34    1
