@<TRIPOS>MOLECULE
*****
 40 41 0 0 0
SMALL
GASTEIGER

@<TRIPOS>ATOM
      1 C          -3.8583    2.2367   -1.4038 C.3     1  UNL1        0.0232
      2 N          -3.9707    1.0831   -0.4766 N.pl3   1  UNL1       -0.2107
      3 C          -2.7402    0.3643   -0.2800 C.ar    1  UNL1        0.0506
      4 C          -2.1022    0.5101    0.9547 C.ar    1  UNL1       -0.0384
      5 C          -0.8857   -0.1336    1.2014 C.ar    1  UNL1       -0.0478
      6 C          -0.2922   -0.9133    0.2007 C.ar    1  UNL1        0.0368
      7 C           0.9995   -1.6234    0.4141 C.2     1  UNL1        0.2443
      8 O           1.2446   -2.6467   -0.2139 O.2     1  UNL1       -0.2702
      9 N           1.8724   -1.0439    1.3096 N.am    1  UNL1       -0.3072
     10 C           3.2170   -1.5497    1.4815 C.3     1  UNL1        0.0371
     11 C           4.2036   -0.7115    0.7100 C.ar    1  UNL1       -0.0303
     12 C           4.3706   -0.9097   -0.6684 C.ar    1  UNL1       -0.0571
     13 C           5.2654   -0.1227   -1.3943 C.ar    1  UNL1       -0.0615
     14 C           5.9982    0.8730   -0.7514 C.ar    1  UNL1       -0.0617
     15 C           5.8353    1.0845    0.6167 C.ar    1  UNL1       -0.0615
     16 C           4.9400    0.2987    1.3448 C.ar    1  UNL1       -0.0571
     17 C          -0.9334   -1.0545   -1.0368 C.ar    1  UNL1       -0.0478
     18 C          -2.1476   -0.4066   -1.2814 C.ar    1  UNL1       -0.0384
     19 S          -5.3722    0.1380   -0.7536 S.O2    1  UNL1        0.0424
     20 C          -5.4726   -0.8278    0.7412 C.3     1  UNL1        0.0738
     21 O          -5.1365   -0.7493   -1.8730 O.2     1  UNL1       -0.1553
     22 O          -6.5061    1.0410   -0.7626 O.2     1  UNL1       -0.1553
     23 H          -2.9603    2.8216   -1.1763 H       1  UNL1        0.0446
     24 H          -4.7142    2.9070   -1.2800 H       1  UNL1        0.0446
     25 H          -3.8026    1.9044   -2.4452 H       1  UNL1        0.0446
     26 H          -2.5552    1.1214    1.7316 H       1  UNL1        0.0637
     27 H          -0.4293   -0.0350    2.1821 H       1  UNL1        0.0626
     28 H           1.7154   -0.0873    1.5916 H       1  UNL1        0.1493
     29 H           3.2857   -2.5991    1.1739 H       1  UNL1        0.0512
     30 H           3.4408   -1.5109    2.5533 H       1  UNL1        0.0512
     31 H           3.7975   -1.6814   -1.1810 H       1  UNL1        0.0621
     32 H           5.3886   -0.2875   -2.4616 H       1  UNL1        0.0618
     33 H           6.6958    1.4846   -1.3175 H       1  UNL1        0.0618
     34 H           6.4071    1.8621    1.1164 H       1  UNL1        0.0618
     35 H           4.8246    0.4781    2.4111 H       1  UNL1        0.0621
     36 H          -0.4852   -1.6666   -1.8179 H       1  UNL1        0.0626
     37 H          -2.6194   -0.5183   -2.2548 H       1  UNL1        0.0637
     38 H          -4.6256   -1.5134    0.7917 H       1  UNL1        0.0482
     39 H          -6.4026   -1.4000    0.7048 H       1  UNL1        0.0482
     40 H          -5.4901   -0.1527    1.5988 H       1  UNL1        0.0482
@<TRIPOS>BOND
     1     1     2    1
     2     2     3    1
     3     3     4   ar
     4     4     5   ar
     5     5     6   ar
     6     6     7    1
     7     7     8    2
     8     7     9   am
     9     9    10    1
    10    10    11    1
    11    11    12   ar
    12    12    13   ar
    13    13    14   ar
    14    14    15   ar
    15    15    16   ar
    16     6    17   ar
    17    17    18   ar
    18     2    19    1
    19    19    20    1
    20    19    21    2
    21    19    22    2
    22    18     3   ar
    23    16    11   ar
    24     1    23    1
    25     1    24    1
    26     1    25    1
    27     4    26    1
    28     5    27    1
    29     9    28    1
    30    10    29    1
    31    10    30    1
    32    12    31    1
    33    13    32    1
    34    14    33    1
    35    15    34    1
    36    16    35    1
    37    17    36    1
    38    18    37    1
    39    20    38    1
    40    20    39    1
    41    20    40    1
