@<TRIPOS>MOLECULE
*****
 36 37 0 0 0
SMALL
GASTEIGER

@<TRIPOS>ATOM
      1 C          -0.5877    1.8145    0.4971 C.3     1  UNL1        0.0095
      2 N          -0.3706    0.3630    0.3245 N.3     1  UNL1       -0.1708
      3 C          -0.1370   -0.0249   -1.0986 C.3     1  UNL1        0.0968
      4 C           1.3467    0.0536   -1.4485 C.2     1  UNL1        0.2330
      5 O           1.7104    0.2264   -2.6082 O.2     1  UNL1       -0.2740
      6 N           2.1627   -0.1279   -0.3460 N.am    1  UNL1       -0.2843
      7 C           3.5679   -0.1432   -0.2950 C.ar    1  UNL1        0.0363
      8 C           4.3864    0.0141   -1.4082 C.ar    1  UNL1       -0.0223
      9 C           5.7602   -0.0172   -1.2252 C.ar    1  UNL1        0.0293
     10 N           6.3589   -0.1918   -0.0281 N.ar    1  UNL1       -0.2631
     11 C           5.5443   -0.3460    1.0348 C.ar    1  UNL1        0.0293
     12 C           4.1612   -0.3290    0.9538 C.ar    1  UNL1       -0.0223
     13 S          -1.3536   -0.6757    1.2418 S.O2    1  UNL1        0.0610
     14 O          -0.8984   -2.0254    0.9858 O.2     1  UNL1       -0.1528
     15 O          -1.4043   -0.1537    2.5904 O.2     1  UNL1       -0.1528
     16 C          -2.9633   -0.4819    0.5147 C.ar    1  UNL1        0.1055
     17 C          -3.8290    0.4998    1.0077 C.ar    1  UNL1       -0.0353
     18 C          -5.0997    0.6384    0.4496 C.ar    1  UNL1       -0.0599
     19 C          -5.5055   -0.2094   -0.5823 C.ar    1  UNL1       -0.0616
     20 C          -4.6482   -1.2053   -1.0533 C.ar    1  UNL1       -0.0599
     21 C          -3.3759   -1.3506   -0.5004 C.ar    1  UNL1       -0.0353
     22 H           0.2504    2.3677    0.0607 H       1  UNL1        0.0408
     23 H          -0.6260    2.0816    1.5566 H       1  UNL1        0.0408
     24 H          -1.5082    2.1380    0.0037 H       1  UNL1        0.0408
     25 H          -0.6969    0.6380   -1.7671 H       1  UNL1        0.0539
     26 H          -0.4484   -1.0538   -1.2998 H       1  UNL1        0.0539
     27 H           1.6590   -0.2358    0.5317 H       1  UNL1        0.1548
     28 H           3.9977    0.1583   -2.4081 H       1  UNL1        0.0651
     29 H           6.4356    0.1014   -2.0679 H       1  UNL1        0.0830
     30 H           6.0473   -0.4893    1.9868 H       1  UNL1        0.0830
     31 H           3.5720   -0.4618    1.8542 H       1  UNL1        0.0651
     32 H          -3.5270    1.1510    1.8251 H       1  UNL1        0.0637
     33 H          -5.7797    1.3998    0.8249 H       1  UNL1        0.0618
     34 H          -6.4996   -0.1033   -1.0114 H       1  UNL1        0.0618
     35 H          -4.9780   -1.8751   -1.8444 H       1  UNL1        0.0618
     36 H          -2.7238   -2.1443   -0.8581 H       1  UNL1        0.0637
@<TRIPOS>BOND
     1     1     2    1
     2     2     3    1
     3     3     4    1
     4     4     5    2
     5     4     6   am
     6     6     7    1
     7     7     8   ar
     8     8     9   ar
     9     9    10   ar
    10    10    11   ar
    11    11    12   ar
    12     2    13    1
    13    13    14    2
    14    13    15    2
    15    13    16    1
    16    16    17   ar
    17    17    18   ar
    18    18    19   ar
    19    19    20   ar
    20    20    21   ar
    21    12     7   ar
    22    21    16   ar
    23     1    22    1
    24     1    23    1
    25     1    24    1
    26     3    25    1
    27     3    26    1
    28     6    27    1
    29     8    28    1
    30     9    29    1
    31    11    30    1
    32    12    31    1
    33    17    32    1
    34    18    33    1
    35    19    34    1
    36    20    35    1
    37    21    36    1
