@<TRIPOS>MOLECULE
*****
 31 32 0 0 0
SMALL
GASTEIGER

@<TRIPOS>ATOM
      1 C           0.9668    0.0529    1.1755 C.3     1  UNL1        0.0039
      2 N           0.0815    0.7811    0.2769 N.am    1  UNL1       -0.2937
      3 C          -1.1861    1.2473    0.8341 C.3     1  UNL1        0.0398
      4 C          -2.1990    0.1353    0.9869 C.ar    1  UNL1       -0.0301
      5 C          -2.5439   -0.3511    2.2565 C.ar    1  UNL1       -0.0571
      6 C          -3.4764   -1.3815    2.3922 C.ar    1  UNL1       -0.0615
      7 C          -4.0746   -1.9353    1.2621 C.ar    1  UNL1       -0.0617
      8 C          -3.7424   -1.4595   -0.0046 C.ar    1  UNL1       -0.0615
      9 C          -2.8102   -0.4299   -0.1420 C.ar    1  UNL1       -0.0571
     10 C           0.3548    1.0444   -1.0714 C.2     1  UNL1        0.2822
     11 O          -0.5114    1.5345   -1.7997 O.2     1  UNL1       -0.2666
     12 C           1.6719    0.7441   -1.6224 C.ar    1  UNL1        0.1965
     13 C           2.0761    0.6818   -2.9503 C.ar    1  UNL1       -0.0041
     14 C           3.4650    0.3985   -2.9604 C.ar    1  UNL1        0.0596
     15 C           3.8229    0.3212   -1.6375 C.ar    1  UNL1        0.4381
     16 N           5.0763    0.0651   -1.0019 N.pl3   1  UNL1        0.1186
     17 O           5.0977    0.0249    0.2352 O.2     1  UNL1        0.0446
     18 O           6.0476   -0.1022   -1.7514 O.co2   1  UNL1       -0.5735
     19 O           2.7629    0.5376   -0.8164 O.2     1  UNL1       -0.3955
     20 H           1.4117   -0.8026    0.6608 H       1  UNL1        0.0429
     21 H           1.7466    0.7340    1.5276 H       1  UNL1        0.0429
     22 H           0.4161   -0.3256    2.0408 H       1  UNL1        0.0429
     23 H          -0.9725    1.7158    1.8030 H       1  UNL1        0.0514
     24 H          -1.6226    2.0372    0.2114 H       1  UNL1        0.0514
     25 H          -2.0878    0.0686    3.1501 H       1  UNL1        0.0621
     26 H          -3.7371   -1.7518    3.3802 H       1  UNL1        0.0618
     27 H          -4.8012   -2.7365    1.3681 H       1  UNL1        0.0618
     28 H          -4.2097   -1.8881   -0.8873 H       1  UNL1        0.0618
     29 H          -2.5635   -0.0651   -1.1375 H       1  UNL1        0.0621
     30 H           1.4252    0.8301   -3.8032 H       1  UNL1        0.0659
     31 H           4.1157    0.2748   -3.8156 H       1  UNL1        0.0722
@<TRIPOS>UNITY_ATOM_ATTR
16 1
charge 1
18 1
charge -1
@<TRIPOS>BOND
     1     1     2    1
     2     2     3    1
     3     3     4    1
     4     4     5   ar
     5     5     6   ar
     6     6     7   ar
     7     7     8   ar
     8     8     9   ar
     9     2    10   am
    10    10    11    2
    11    10    12    1
    12    12    13   ar
    13    13    14   ar
    14    14    15   ar
    15    15    16    1
    16    16    17    2
    17    16    18    1
    18    15    19   ar
    19     9     4   ar
    20    19    12   ar
    21     1    20    1
    22     1    21    1
    23     1    22    1
    24     3    23    1
    25     3    24    1
    26     5    25    1
    27     6    26    1
    28     7    27    1
    29     8    28    1
    30     9    29    1
    31    13    30    1
    32    14    31    1
