@<TRIPOS>MOLECULE
*****
 34 35 0 0 0
SMALL
GASTEIGER

@<TRIPOS>ATOM
      1 C          -5.9923    0.9682   -0.7590 C.3     1  UNL1        0.0308
      2 N          -5.1027    1.0536    0.3894 N.2     1  UNL1       -0.2664
      3 C          -3.8914    0.6506    0.2801 C.2     1  UNL1        0.1584
      4 S          -3.1223   -0.0019   -1.1400 S.3     1  UNL1       -0.0771
      5 C          -1.6017   -0.4334   -0.2365 C.3     1  UNL1        0.0973
      6 C          -0.3582   -0.0125   -1.0085 C.3     1  UNL1        0.0449
      7 C           0.8625   -0.7792   -0.5260 C.2     1  UNL1        0.2188
      8 O           0.7595   -1.8573    0.0474 O.2     1  UNL1       -0.2754
      9 N           2.0418   -0.1483   -0.8771 N.am    1  UNL1       -0.2842
     10 C           3.3717   -0.5604   -0.6062 C.ar    1  UNL1        0.0533
     11 C           3.6762   -1.7221    0.1108 C.ar    1  UNL1       -0.0390
     12 C           5.0041   -2.0842    0.3537 C.ar    1  UNL1       -0.0585
     13 C           6.0457   -1.2888   -0.1167 C.ar    1  UNL1       -0.0419
     14 C           5.7640   -0.1245   -0.8329 C.ar    1  UNL1        0.0610
     15 CL          7.1073    0.8140   -1.3863 Cl      1  UNL1       -0.0820
     16 C           4.4327    0.2439   -1.0793 C.ar    1  UNL1        0.0804
     17 CL          4.0609    1.6923   -1.9723 Cl      1  UNL1       -0.0801
     18 C          -1.7130    0.3258    1.0724 C.2     1  UNL1        0.2348
     19 O          -0.7544    0.5662    1.7992 O.2     1  UNL1       -0.2740
     20 N          -3.0104    0.7147    1.3239 N.am    1  UNL1       -0.2532
     21 C          -3.3599    1.3717    2.5666 C.3     1  UNL1        0.0101
     22 H          -6.1285   -0.0662   -1.0913 H       1  UNL1        0.0473
     23 H          -5.6415    1.5883   -1.5904 H       1  UNL1        0.0473
     24 H          -6.9785    1.3455   -0.4696 H       1  UNL1        0.0473
     25 H          -1.6368   -1.5051   -0.0170 H       1  UNL1        0.0516
     26 H          -0.1774    1.0651   -0.9085 H       1  UNL1        0.0374
     27 H          -0.4585   -0.2462   -2.0760 H       1  UNL1        0.0374
     28 H           1.9705    0.7289   -1.3851 H       1  UNL1        0.1548
     29 H           2.9000   -2.3725    0.5036 H       1  UNL1        0.0637
     30 H           5.2209   -2.9910    0.9149 H       1  UNL1        0.0619
     31 H           7.0744   -1.5819    0.0798 H       1  UNL1        0.0633
     32 H          -4.3491    1.0416    2.8977 H       1  UNL1        0.0433
     33 H          -2.6261    1.1534    3.3473 H       1  UNL1        0.0433
     34 H          -3.3895    2.4518    2.3921 H       1  UNL1        0.0433
@<TRIPOS>BOND
     1     1     2    1
     2     2     3    2
     3     3     4    1
     4     4     5    1
     5     5     6    1
     6     6     7    1
     7     7     8    2
     8     7     9   am
     9     9    10    1
    10    10    11   ar
    11    11    12   ar
    12    12    13   ar
    13    13    14   ar
    14    14    15    1
    15    14    16   ar
    16    16    17    1
    17     5    18    1
    18    18    19    2
    19    18    20   am
    20    20    21    1
    21    20     3    1
    22    16    10   ar
    23     1    22    1
    24     1    23    1
    25     1    24    1
    26     5    25    1
    27     6    26    1
    28     6    27    1
    29     9    28    1
    30    11    29    1
    31    12    30    1
    32    13    31    1
    33    21    32    1
    34    21    33    1
    35    21    34    1
