@<TRIPOS>MOLECULE
*****
 29 31 0 0 0
SMALL
GASTEIGER

@<TRIPOS>ATOM
      1 C          -0.6802   -0.5460    3.0128 C.3     1  UNL1        0.0063
      2 N          -0.7291   -0.1849    1.6080 N.pl3   1  UNL1       -0.2968
      3 C           0.2591    0.4696    0.8573 C.2     1  UNL1        0.0763
      4 C           1.5042    0.7593    1.2729 C.2     1  UNL1        0.0144
      5 C           2.5479    1.4658    0.4823 C.2     1  UNL1        0.1949
      6 O           2.9095    2.5640    0.9080 O.2     1  UNL1       -0.2866
      7 C           3.1382    0.7868   -0.6661 C.ar    1  UNL1        0.0589
      8 C           2.9993   -0.5226   -1.0951 C.ar    1  UNL1       -0.0438
      9 C           3.7546   -0.7980   -2.2732 C.ar    1  UNL1       -0.0540
     10 C           4.4547    0.3047   -2.7043 C.ar    1  UNL1       -0.0236
     11 S           4.2033    1.6585   -1.6933 S.2     1  UNL1       -0.0934
     12 S          -0.2950    0.9556   -0.7723 S.3     1  UNL1       -0.0720
     13 C          -1.9148    0.3175   -0.3757 C.ar    1  UNL1        0.0352
     14 C          -3.0271    0.3544   -1.2053 C.ar    1  UNL1       -0.0461
     15 C          -4.2267   -0.1722   -0.7299 C.ar    1  UNL1       -0.0606
     16 C          -4.2959   -0.7201    0.5569 C.ar    1  UNL1       -0.0599
     17 C          -3.1665   -0.7511    1.3854 C.ar    1  UNL1       -0.0393
     18 C          -1.9612   -0.2324    0.9231 C.ar    1  UNL1        0.0480
     19 H          -1.1368   -1.5264    3.1879 H       1  UNL1        0.0432
     20 H           0.3464   -0.6243    3.3831 H       1  UNL1        0.0432
     21 H          -1.1998    0.2018    3.6217 H       1  UNL1        0.0432
     22 H           1.8260    0.5495    2.2841 H       1  UNL1        0.0680
     23 H           2.3805   -1.2598   -0.5974 H       1  UNL1        0.0630
     24 H           3.7812   -1.7562   -2.7777 H       1  UNL1        0.0623
     25 H           5.1048    0.3835   -3.5649 H       1  UNL1        0.0693
     26 H          -2.9673    0.7867   -2.1988 H       1  UNL1        0.0629
     27 H          -5.1132   -0.1545   -1.3594 H       1  UNL1        0.0618
     28 H          -5.2388   -1.1260    0.9173 H       1  UNL1        0.0618
     29 H          -3.2576   -1.1832    2.3757 H       1  UNL1        0.0636
@<TRIPOS>BOND
     1     1     2    1
     2     2     3    1
     3     3     4    2
     4     4     5    1
     5     5     6    2
     6     5     7    1
     7     7     8   ar
     8     8     9   ar
     9     9    10   ar
    10    10    11   ar
    11     3    12    1
    12    12    13    1
    13    13    14   ar
    14    14    15   ar
    15    15    16   ar
    16    16    17   ar
    17    17    18   ar
    18    18     2    1
    19    11     7   ar
    20    18    13   ar
    21     1    19    1
    22     1    20    1
    23     1    21    1
    24     4    22    1
    25     8    23    1
    26     9    24    1
    27    10    25    1
    28    14    26    1
    29    15    27    1
    30    16    28    1
    31    17    29    1
