@<TRIPOS>MOLECULE
*****
 34 35 0 0 0
SMALL
GASTEIGER

@<TRIPOS>ATOM
      1 C           0.6913    1.5892   -1.8041 C.3     1  UNL1        0.0055
      2 N          -0.0124    0.8047   -0.8099 N.pl3   1  UNL1       -0.3056
      3 C           0.4597   -0.2431   -0.0088 C.2     1  UNL1        0.0207
      4 C           1.5663   -1.0081   -0.1063 C.2     1  UNL1       -0.0418
      5 C           2.5502   -1.0112   -1.1730 C.2     1  UNL1       -0.0325
      6 C           3.7359   -1.6546   -1.1706 C.2     1  UNL1        0.1282
      7 C           4.5723   -1.5703   -2.3204 C.1     1  UNL1        0.1102
      8 N           5.2371   -1.4847   -3.2677 N.1     1  UNL1       -0.1902
      9 C           4.1975   -2.4117   -0.0575 C.1     1  UNL1        0.1102
     10 N           4.5568   -3.0282    0.8579 N.1     1  UNL1       -0.1902
     11 C          -0.5863   -0.4890    1.1357 C.3     1  UNL1        0.0300
     12 C          -0.0103   -0.1164    2.5091 C.3     1  UNL1       -0.0505
     13 C          -1.1221   -1.9290    1.1350 C.3     1  UNL1       -0.0505
     14 C          -1.6897    0.4808    0.7470 C.ar    1  UNL1       -0.0149
     15 C          -2.9198    0.6969    1.3565 C.ar    1  UNL1       -0.0559
     16 C          -3.7729    1.6508    0.8041 C.ar    1  UNL1       -0.0614
     17 C          -3.3907    2.3663   -0.3384 C.ar    1  UNL1       -0.0600
     18 C          -2.1475    2.1416   -0.9414 C.ar    1  UNL1       -0.0401
     19 C          -1.2909    1.2006   -0.3918 C.ar    1  UNL1        0.0376
     20 H           0.5572    1.1518   -2.7986 H       1  UNL1        0.0432
     21 H           0.3557    2.6313   -1.8384 H       1  UNL1        0.0432
     22 H           1.7618    1.6431   -1.5814 H       1  UNL1        0.0432
     23 H           1.7218   -1.7480    0.6791 H       1  UNL1        0.0634
     24 H           2.2697   -0.4700   -2.0735 H       1  UNL1        0.0638
     25 H          -0.7726   -0.1874    3.2938 H       1  UNL1        0.0242
     26 H           0.3742    0.9107    2.5207 H       1  UNL1        0.0242
     27 H           0.8131   -0.7819    2.7917 H       1  UNL1        0.0242
     28 H          -0.3407   -2.6514    1.3954 H       1  UNL1        0.0242
     29 H          -1.5207   -2.2093    0.1524 H       1  UNL1        0.0242
     30 H          -1.9321   -2.0546    1.8629 H       1  UNL1        0.0242
     31 H          -3.2158    0.1404    2.2396 H       1  UNL1        0.0621
     32 H          -4.7422    1.8391    1.2593 H       1  UNL1        0.0618
     33 H          -4.0693    3.1023   -0.7630 H       1  UNL1        0.0618
     34 H          -1.8847    2.6994   -1.8326 H       1  UNL1        0.0636
@<TRIPOS>BOND
     1     1     2    1
     2     2     3    1
     3     3     4    2
     4     4     5    1
     5     5     6    2
     6     6     7    1
     7     7     8    3
     8     6     9    1
     9     9    10    3
    10     3    11    1
    11    11    12    1
    12    11    13    1
    13    11    14    1
    14    14    15   ar
    15    15    16   ar
    16    16    17   ar
    17    17    18   ar
    18    18    19   ar
    19    19     2    1
    20    19    14   ar
    21     1    20    1
    22     1    21    1
    23     1    22    1
    24     4    23    1
    25     5    24    1
    26    12    25    1
    27    12    26    1
    28    12    27    1
    29    13    28    1
    30    13    29    1
    31    13    30    1
    32    15    31    1
    33    16    32    1
    34    17    33    1
    35    18    34    1
