@<TRIPOS>MOLECULE
*****
 47 53 0 0 0
SMALL
GASTEIGER

@<TRIPOS>ATOM
      1 C          -3.1880   -2.5987    1.7542 C.3     1  UNL1        0.0087
      2 N          -2.5387   -1.5337    1.0312 N.am    1  UNL1       -0.2687
      3 C          -1.1388   -1.4016    0.9583 C.2     1  UNL1        0.2533
      4 O          -0.2645   -2.1065    1.4171 O.2     1  UNL1       -0.2696
      5 C          -0.9724   -0.1751    0.1590 C.2     1  UNL1        0.0736
      6 C          -0.0685    0.6470   -0.3718 C.2     1  UNL1        0.0630
      7 C           1.3338    0.5037   -0.2639 C.ar    1  UNL1        0.0360
      8 C           2.2400    0.2076   -1.2652 C.ar    1  UNL1       -0.0313
      9 C           3.5758    0.1572   -0.7666 C.ar    1  UNL1        0.0276
     10 S           5.1382   -0.1575   -1.4630 S.2     1  UNL1       -0.0872
     11 C           5.9040    0.0605    0.0682 C.ar    1  UNL1        0.0275
     12 C           7.3447   -0.0712    0.2040 C.ar    1  UNL1        0.0259
     13 C           8.2435   -0.6203   -0.6970 C.ar    1  UNL1       -0.0464
     14 C           9.5933   -0.5818   -0.2371 C.ar    1  UNL1       -0.0541
     15 C           9.6947   -0.0032    1.0055 C.ar    1  UNL1       -0.0237
     16 S           8.1745    0.4862    1.6075 S.2     1  UNL1       -0.0961
     17 C           4.9941    0.3622    1.0664 C.ar    1  UNL1       -0.0321
     18 C           3.6582    0.4154    0.5679 C.ar    1  UNL1        0.0276
     19 S           2.0956    0.7368    1.2657 S.2     1  UNL1       -0.0864
     20 N          -0.7147    1.6638   -1.0696 N.am    1  UNL1       -0.2687
     21 C          -0.0649    2.7505   -1.7591 C.3     1  UNL1        0.0087
     22 C          -2.1147    1.5287   -1.0023 C.2     1  UNL1        0.2533
     23 O          -2.9878    2.2149   -1.4909 O.2     1  UNL1       -0.2696
     24 C          -2.2822    0.3145   -0.1841 C.2     1  UNL1        0.0736
     25 C          -3.1859   -0.5048    0.3517 C.2     1  UNL1        0.0630
     26 C          -4.5885   -0.3683    0.2353 C.ar    1  UNL1        0.0360
     27 C          -5.4730   -1.1984   -0.4283 C.ar    1  UNL1       -0.0313
     28 C          -6.8173   -0.7347   -0.3124 C.ar    1  UNL1        0.0270
     29 S          -8.3665   -1.2894   -0.8939 S.2     1  UNL1       -0.0961
     30 C          -9.1339    0.0424   -0.1359 C.ar    1  UNL1       -0.0227
     31 C          -8.2708    0.8774    0.5358 C.ar    1  UNL1       -0.0404
     32 C          -6.9263    0.4100    0.4245 C.ar    1  UNL1        0.0270
     33 S          -5.3797    0.9541    1.0105 S.2     1  UNL1       -0.0864
     34 H          -2.4485   -3.2120    2.2769 H       1  UNL1        0.0433
     35 H          -3.8782   -2.1744    2.4891 H       1  UNL1        0.0433
     36 H          -3.7343   -3.2322    1.0499 H       1  UNL1        0.0433
     37 H           1.9686    0.0282   -2.2983 H       1  UNL1        0.0641
     38 H           7.9561   -1.0421   -1.6527 H       1  UNL1        0.0629
     39 H          10.4430   -0.9608   -0.7916 H       1  UNL1        0.0623
     40 H          10.5894    0.1561    1.5916 H       1  UNL1        0.0693
     41 H           5.2501    0.5352    2.1043 H       1  UNL1        0.0640
     42 H           0.6017    3.2752   -1.0686 H       1  UNL1        0.0433
     43 H           0.5075    2.3524   -2.6017 H       1  UNL1        0.0433
     44 H          -0.8060    3.4582   -2.1414 H       1  UNL1        0.0433
     45 H          -5.1812   -2.0863   -0.9755 H       1  UNL1        0.0641
     46 H         -10.2069    0.1479   -0.2240 H       1  UNL1        0.0694
     47 H          -8.5747    1.7670    1.0724 H       1  UNL1        0.0634
@<TRIPOS>BOND
     1     1     2    1
     2     2     3   am
     3     3     4    2
     4     3     5    1
     5     5     6    2
     6     6     7    1
     7     7     8   ar
     8     8     9   ar
     9     9    10   ar
    10    10    11   ar
    11    11    12    1
    12    12    13   ar
    13    13    14   ar
    14    14    15   ar
    15    15    16   ar
    16    11    17   ar
    17    17    18   ar
    18    18    19   ar
    19     6    20    1
    20    20    21    1
    21    20    22   am
    22    22    23    2
    23    22    24    1
    24    24    25    2
    25    25    26    1
    26    26    27   ar
    27    27    28   ar
    28    28    29   ar
    29    29    30   ar
    30    30    31   ar
    31    31    32   ar
    32    32    33   ar
    33    25     2    1
    34    33    26   ar
    35    24     5    1
    36    32    28   ar
    37    19     7   ar
    38    18     9   ar
    39    16    12   ar
    40     1    34    1
    41     1    35    1
    42     1    36    1
    43     8    37    1
    44    13    38    1
    45    14    39    1
    46    15    40    1
    47    17    41    1
    48    21    42    1
    49    21    43    1
    50    21    44    1
    51    27    45    1
    52    30    46    1
    53    31    47    1
