@<TRIPOS>MOLECULE
*****
 40 45 0 0 0
SMALL
GASTEIGER

@<TRIPOS>ATOM
      1 C          -1.9238   -2.9869    0.1069 C.3     1  UNL1        0.0087
      2 N          -1.1374   -1.7838   -0.0010 N.am    1  UNL1       -0.2687
      3 C           0.2702   -1.8054   -0.0488 C.2     1  UNL1        0.2533
      4 O           1.0387   -2.7442   -0.0360 O.2     1  UNL1       -0.2696
      5 C           0.6131   -0.3754   -0.1228 C.2     1  UNL1        0.0736
      6 C           1.6320    0.4816   -0.1828 C.2     1  UNL1        0.0630
      7 C           2.9960    0.1003   -0.2059 C.ar    1  UNL1        0.0360
      8 C           3.6324   -0.7248   -1.1167 C.ar    1  UNL1       -0.0313
      9 C           5.0146   -0.8915   -0.8056 C.ar    1  UNL1        0.0270
     10 S           6.3457   -1.7567   -1.5302 S.2     1  UNL1       -0.0961
     11 C           7.3911   -1.1951   -0.2939 C.ar    1  UNL1       -0.0227
     12 C           6.7755   -0.3887    0.6357 C.ar    1  UNL1       -0.0404
     13 C           5.3922   -0.2227    0.3231 C.ar    1  UNL1        0.0270
     14 S           4.0594    0.6321    1.0459 S.2     1  UNL1       -0.0864
     15 N           1.1374    1.7838   -0.2442 N.am    1  UNL1       -0.2687
     16 C           1.9238    2.9869   -0.3522 C.3     1  UNL1        0.0087
     17 C          -0.2702    1.8054   -0.1964 C.2     1  UNL1        0.2533
     18 O          -1.0387    2.7442   -0.2092 O.2     1  UNL1       -0.2696
     19 C          -0.6131    0.3754   -0.1224 C.2     1  UNL1        0.0736
     20 C          -1.6320   -0.4816   -0.0624 C.2     1  UNL1        0.0630
     21 C          -2.9960   -0.1003   -0.0393 C.ar    1  UNL1        0.0360
     22 C          -3.6324    0.7248    0.8714 C.ar    1  UNL1       -0.0313
     23 C          -5.0146    0.8915    0.5604 C.ar    1  UNL1        0.0270
     24 S          -6.3457    1.7567    1.2850 S.2     1  UNL1       -0.0961
     25 C          -7.3911    1.1951    0.0487 C.ar    1  UNL1       -0.0227
     26 C          -6.7755    0.3887   -0.8809 C.ar    1  UNL1       -0.0404
     27 C          -5.3922    0.2227   -0.5683 C.ar    1  UNL1        0.0270
     28 S          -4.0594   -0.6321   -1.2911 S.2     1  UNL1       -0.0864
     29 H          -2.6967   -2.8615    0.8705 H       1  UNL1        0.0433
     30 H          -2.3798   -3.2060   -0.8623 H       1  UNL1        0.0433
     31 H          -1.2871   -3.8315    0.3867 H       1  UNL1        0.0433
     32 H           3.1428   -1.1897   -1.9641 H       1  UNL1        0.0641
     33 H           8.4303   -1.4951   -0.3115 H       1  UNL1        0.0694
     34 H           7.2764    0.0542    1.4868 H       1  UNL1        0.0634
     35 H           1.2871    3.8315   -0.6319 H       1  UNL1        0.0433
     36 H           2.3798    3.2060    0.6171 H       1  UNL1        0.0433
     37 H           2.6967    2.8615   -1.1157 H       1  UNL1        0.0433
     38 H          -3.1428    1.1898    1.7189 H       1  UNL1        0.0641
     39 H          -8.4303    1.4951    0.0663 H       1  UNL1        0.0694
     40 H          -7.2764   -0.0542   -1.7321 H       1  UNL1        0.0634
@<TRIPOS>BOND
     1     1     2    1
     2     2     3   am
     3     3     4    2
     4     3     5    1
     5     5     6    2
     6     6     7    1
     7     7     8   ar
     8     8     9   ar
     9     9    10   ar
    10    10    11   ar
    11    11    12   ar
    12    12    13   ar
    13    13    14   ar
    14     6    15    1
    15    15    16    1
    16    15    17   am
    17    17    18    2
    18    17    19    1
    19    19    20    2
    20    20    21    1
    21    21    22   ar
    22    22    23   ar
    23    23    24   ar
    24    24    25   ar
    25    25    26   ar
    26    26    27   ar
    27    27    28   ar
    28    20     2    1
    29    28    21   ar
    30    19     5    1
    31    27    23   ar
    32    14     7   ar
    33    13     9   ar
    34     1    29    1
    35     1    30    1
    36     1    31    1
    37     8    32    1
    38    11    33    1
    39    12    34    1
    40    16    35    1
    41    16    36    1
    42    16    37    1
    43    22    38    1
    44    25    39    1
    45    26    40    1
