@<TRIPOS>MOLECULE
*****
 50 55 0 0 0
SMALL
GASTEIGER

@<TRIPOS>ATOM
      1 C          -4.2570   -1.0533    2.4587 C.3     1  UNL1        0.0087
      2 N          -3.6688   -0.6788    1.1969 N.am    1  UNL1       -0.2687
      3 C          -2.2919   -0.7996    0.9295 C.2     1  UNL1        0.2533
      4 O          -1.3924   -1.1874    1.6455 O.2     1  UNL1       -0.2696
      5 C          -2.1938   -0.3421   -0.4685 C.2     1  UNL1        0.0736
      6 C          -1.3446   -0.1310   -1.4736 C.2     1  UNL1        0.0629
      7 C           0.0499   -0.3530   -1.4307 C.ar    1  UNL1        0.0349
      8 C           0.8146   -1.2363   -2.1709 C.ar    1  UNL1       -0.0451
      9 C           2.2021   -1.1691   -1.8523 C.ar    1  UNL1       -0.0463
     10 C           2.4753   -0.2382   -0.8696 C.ar    1  UNL1        0.0200
     11 C           3.7721    0.1200   -0.2826 C.ar    1  UNL1       -0.0107
     12 C           4.8737    0.3593   -1.1127 C.ar    1  UNL1       -0.0529
     13 C           6.1184    0.6909   -0.5693 C.ar    1  UNL1       -0.0534
     14 C           6.2917    0.7854    0.8191 C.ar    1  UNL1       -0.0178
     15 C           7.5351    1.1168    1.3815 C.ar    1  UNL1       -0.0540
     16 C           7.6911    1.2038    2.7657 C.ar    1  UNL1       -0.0612
     17 C           6.6074    0.9607    3.6042 C.ar    1  UNL1       -0.0612
     18 C           5.3650    0.6306    3.0603 C.ar    1  UNL1       -0.0540
     19 C           5.1907    0.5399    1.6696 C.ar    1  UNL1       -0.0173
     20 C           3.9452    0.2086    1.1072 C.ar    1  UNL1       -0.0458
     21 S           1.0457    0.5641   -0.3708 S.2     1  UNL1       -0.0870
     22 N          -2.0437    0.3357   -2.5842 N.am    1  UNL1       -0.2687
     23 C          -1.4566    0.7155   -3.8448 C.3     1  UNL1        0.0087
     24 C          -3.4207    0.4569   -2.3162 C.2     1  UNL1        0.2533
     25 O          -4.3200    0.8466   -3.0313 O.2     1  UNL1       -0.2696
     26 C          -3.5188   -0.0014   -0.9190 C.2     1  UNL1        0.0736
     27 C          -4.3676   -0.2130    0.0860 C.2     1  UNL1        0.0629
     28 C          -5.7620    0.0082    0.0439 C.ar    1  UNL1        0.0343
     29 C          -6.5215    0.9205    0.7570 C.ar    1  UNL1       -0.0457
     30 C          -7.9123    0.8424    0.4562 C.ar    1  UNL1       -0.0541
     31 C          -8.1809   -0.1329   -0.4757 C.ar    1  UNL1       -0.0237
     32 S          -6.7661   -0.9480   -0.9775 S.2     1  UNL1       -0.0954
     33 H          -3.4984   -1.4746    3.1244 H       1  UNL1        0.0433
     34 H          -5.0353   -1.8035    2.2910 H       1  UNL1        0.0433
     35 H          -4.6873   -0.1673    2.9339 H       1  UNL1        0.0433
     36 H           0.3952   -1.9145   -2.9047 H       1  UNL1        0.0630
     37 H           2.9620   -1.7898   -2.3122 H       1  UNL1        0.0629
     38 H           4.7713    0.3017   -2.1939 H       1  UNL1        0.0624
     39 H           6.9529    0.8766   -1.2416 H       1  UNL1        0.0624
     40 H           8.3940    1.3096    0.7427 H       1  UNL1        0.0624
     41 H           8.6589    1.4611    3.1881 H       1  UNL1        0.0618
     42 H           6.7268    1.0275    4.6824 H       1  UNL1        0.0618
     43 H           4.5295    0.4443    3.7318 H       1  UNL1        0.0624
     44 H           3.1020    0.0062    1.7660 H       1  UNL1        0.0630
     45 H          -1.0350   -0.1701   -4.3283 H       1  UNL1        0.0433
     46 H          -2.2141    1.1475   -4.5050 H       1  UNL1        0.0433
     47 H          -0.6720    1.4585   -3.6743 H       1  UNL1        0.0433
     48 H          -6.0940    1.6249    1.4610 H       1  UNL1        0.0629
     49 H          -8.6750    1.4725    0.8972 H       1  UNL1        0.0623
     50 H          -9.1412   -0.4075   -0.8902 H       1  UNL1        0.0693
@<TRIPOS>BOND
     1     1     2    1
     2     2     3   am
     3     3     4    2
     4     3     5    1
     5     5     6    2
     6     6     7    1
     7     7     8   ar
     8     8     9   ar
     9     9    10   ar
    10    10    11    1
    11    11    12   ar
    12    12    13   ar
    13    13    14   ar
    14    14    15   ar
    15    15    16   ar
    16    16    17   ar
    17    17    18   ar
    18    18    19   ar
    19    19    20   ar
    20    10    21   ar
    21     6    22    1
    22    22    23    1
    23    22    24   am
    24    24    25    2
    25    24    26    1
    26    26    27    2
    27    27    28    1
    28    28    29   ar
    29    29    30   ar
    30    30    31   ar
    31    31    32   ar
    32    27     2    1
    33    32    28   ar
    34    26     5    1
    35    21     7   ar
    36    20    11   ar
    37    19    14   ar
    38     1    33    1
    39     1    34    1
    40     1    35    1
    41     8    36    1
    42     9    37    1
    43    12    38    1
    44    13    39    1
    45    15    40    1
    46    16    41    1
    47    17    42    1
    48    18    43    1
    49    20    44    1
    50    23    45    1
    51    23    46    1
    52    23    47    1
    53    29    48    1
    54    30    49    1
    55    31    50    1
