@<TRIPOS>MOLECULE
*****
 40 46 0 0 0
SMALL
GASTEIGER

@<TRIPOS>ATOM
      1 SI         -4.5634   -2.2111    1.6403 Si      1  UNL1        0.0000
      2 C          -6.0191   -1.3608    0.7931 C.2     1  UNL1        0.0000
      3 C          -5.6489   -0.3647   -0.0335 C.2     1  UNL1        0.0000
      4 C          -4.2019   -0.1797   -0.0768 C.ar    1  UNL1        0.0000
      5 C          -3.3925   -1.0443    0.7310 C.ar    1  UNL1        0.0000
      6 C          -1.9748   -0.9470    0.7608 C.ar    1  UNL1        0.0000
      7 SI         -0.6753   -2.0083    1.7770 Si      1  UNL1        0.0000
      8 C           0.7190   -0.9987    1.0210 C.ar    1  UNL1        0.0000
      9 C           2.1057   -0.8992    1.0467 C.ar    1  UNL1        0.0000
     10 C           2.4313    0.1408    0.1791 C.ar    1  UNL1        0.0000
     11 N           1.2455    0.6412   -0.3463 N.ar    1  UNL1        0.0000
     12 C           0.1952   -0.0537    0.1667 C.ar    1  UNL1        0.0000
     13 C          -1.2326    0.0234   -0.0138 C.ar    1  UNL1        0.0000
     14 C          -2.0364    0.8532   -0.7914 C.ar    1  UNL1        0.0000
     15 C          -1.6761    1.8710   -1.6374 C.ar    1  UNL1        0.0000
     16 N          -2.8419    2.3854   -2.1728 N.ar    1  UNL1        0.0000
     17 C          -3.9411    1.7113   -1.6813 C.ar    1  UNL1        0.0000
     18 C          -3.4723    0.7527   -0.8198 C.ar    1  UNL1        0.0000
     19 C           3.7158    0.6756   -0.1774 C.ar    1  UNL1        0.0000
     20 S           3.8946    2.0037   -1.3058 S.2     1  UNL1        0.0000
     21 C           5.6208    2.0310   -1.1897 C.ar    1  UNL1        0.0000
     22 C           5.9833    1.0646   -0.3289 C.ar    1  UNL1        0.0000
     23 O           7.2565    0.7565    0.0392 O.2     1  UNL1        0.0000
     24 C           6.9989   -0.2827    0.9127 C.ar    1  UNL1        0.0000
     25 C           5.6389   -0.5831    1.0612 C.ar    1  UNL1        0.0000
     26 C           4.9632    0.3270    0.2234 C.ar    1  UNL1        0.0000
     27 H          -4.5569   -1.9924    3.1080 H       1  UNL1        0.0000
     28 H          -4.4053   -3.6228    1.2112 H       1  UNL1        0.0000
     29 H          -7.0299   -1.6836    0.9897 H       1  UNL1        0.0000
     30 H          -6.3274    0.2454   -0.6121 H       1  UNL1        0.0000
     31 H          -0.8686   -1.8017    3.2357 H       1  UNL1        0.0000
     32 H          -0.7170   -3.4287    1.3426 H       1  UNL1        0.0000
     33 H           2.8013   -1.4983    1.6174 H       1  UNL1        0.0000
     34 H           1.1888    1.4034   -1.0059 H       1  UNL1        0.0000
     35 H          -0.7225    2.2897   -1.9210 H       1  UNL1        0.0000
     36 H          -2.8844    3.1503   -2.8336 H       1  UNL1        0.0000
     37 H          -4.9389    1.9839   -1.9955 H       1  UNL1        0.0000
     38 H           6.2511    2.7202   -1.7319 H       1  UNL1        0.0000
     39 H           7.8878   -0.7133    1.3552 H       1  UNL1        0.0000
     40 H           5.2296   -1.3564    1.6936 H       1  UNL1        0.0000
@<TRIPOS>BOND
     1     1     2    1
     2     2     3    2
     3     3     4    1
     4     4     5   ar
     5     5     6   ar
     6     6     7    1
     7     7     8    1
     8     8     9   ar
     9     9    10   ar
    10    10    11   ar
    11    11    12   ar
    12    12    13    1
    13    13    14   ar
    14    14    15   ar
    15    15    16   ar
    16    16    17   ar
    17    17    18   ar
    18    10    19    1
    19    19    20   ar
    20    20    21   ar
    21    21    22   ar
    22    22    23   ar
    23    23    24   ar
    24    24    25   ar
    25    25    26   ar
    26     5     1    1
    27    13     6   ar
    28    18    14   ar
    29    26    19   ar
    30    18     4   ar
    31    26    22   ar
    32    12     8   ar
    33     1    27    1
    34     1    28    1
    35     2    29    1
    36     3    30    1
    37     7    31    1
    38     7    32    1
    39     9    33    1
    40    11    34    1
    41    15    35    1
    42    16    36    1
    43    17    37    1
    44    21    38    1
    45    24    39    1
    46    25    40    1
