@<TRIPOS>MOLECULE
*****
 44 48 0 0 0
SMALL
GASTEIGER

@<TRIPOS>ATOM
      1 C          -3.9023   -1.6552    2.2998 C.3     1  UNL1        0.0087
      2 N          -3.0877   -0.9742    1.3246 N.am    1  UNL1       -0.2687
      3 C          -1.7097   -1.2168    1.1746 C.2     1  UNL1        0.2533
      4 O          -0.9792   -1.9670    1.7880 O.2     1  UNL1       -0.2696
      5 C          -1.3465   -0.3338    0.0518 C.2     1  UNL1        0.0736
      6 C          -0.3279    0.0717   -0.7069 C.2     1  UNL1        0.0629
      7 C           1.0024   -0.3922   -0.5673 C.ar    1  UNL1        0.0349
      8 C           1.4683   -1.6954   -0.5428 C.ar    1  UNL1       -0.0451
      9 C           2.8785   -1.7812   -0.3569 C.ar    1  UNL1       -0.0463
     10 C           3.4735   -0.5417   -0.2330 C.ar    1  UNL1        0.0200
     11 C           4.8899   -0.2246   -0.0089 C.ar    1  UNL1       -0.0113
     12 C           5.5441    0.7758   -0.7433 C.ar    1  UNL1       -0.0535
     13 C           6.8962    1.0539   -0.5241 C.ar    1  UNL1       -0.0612
     14 C           7.6116    0.3337    0.4298 C.ar    1  UNL1       -0.0617
     15 C           6.9775   -0.6656    1.1642 C.ar    1  UNL1       -0.0612
     16 C           5.6259   -0.9444    0.9446 C.ar    1  UNL1       -0.0535
     17 S           2.3038    0.7067   -0.3208 S.2     1  UNL1       -0.0870
     18 N          -0.7933    0.9866   -1.6513 N.am    1  UNL1       -0.2687
     19 C          -0.0094    1.6226   -2.6799 C.3     1  UNL1        0.0087
     20 C          -2.1739    1.2281   -1.5040 C.2     1  UNL1        0.2533
     21 O          -2.9049    1.9676   -2.1293 O.2     1  UNL1       -0.2696
     22 C          -2.5380    0.3479   -0.3810 C.2     1  UNL1        0.0736
     23 C          -3.5498   -0.0529    0.3877 C.2     1  UNL1        0.0629
     24 C          -4.8869    0.3896    0.2826 C.ar    1  UNL1        0.0343
     25 C          -5.6364    1.1213    1.1882 C.ar    1  UNL1       -0.0457
     26 C          -6.9650    1.3713    0.7372 C.ar    1  UNL1       -0.0541
     27 C          -7.1986    0.8181   -0.5002 C.ar    1  UNL1       -0.0237
     28 S          -5.8266    0.0013   -1.1073 S.2     1  UNL1       -0.0954
     29 H          -3.3071   -2.3908    2.8484 H       1  UNL1        0.0433
     30 H          -4.7231   -2.1718    1.7939 H       1  UNL1        0.0433
     31 H          -4.3005   -0.9260    3.0108 H       1  UNL1        0.0433
     32 H           0.8227   -2.5601   -0.6478 H       1  UNL1        0.0630
     33 H           3.4280   -2.7142   -0.3155 H       1  UNL1        0.0629
     34 H           5.0105    1.3434   -1.5020 H       1  UNL1        0.0624
     35 H           7.3897    1.8321   -1.1007 H       1  UNL1        0.0618
     36 H           8.6627    0.5512    0.6007 H       1  UNL1        0.0618
     37 H           7.5326   -1.2277    1.9108 H       1  UNL1        0.0618
     38 H           5.1474   -1.7222    1.5359 H       1  UNL1        0.0624
     39 H           0.5976    2.4136   -2.2314 H       1  UNL1        0.0433
     40 H          -0.6646    2.0761   -3.4295 H       1  UNL1        0.0433
     41 H           0.6298    0.8854   -3.1739 H       1  UNL1        0.0433
     42 H          -5.2432    1.4733    2.1348 H       1  UNL1        0.0629
     43 H          -7.7087    1.9321    1.2900 H       1  UNL1        0.0623
     44 H          -8.1096    0.8546   -1.0817 H       1  UNL1        0.0693
@<TRIPOS>BOND
     1     1     2    1
     2     2     3   am
     3     3     4    2
     4     3     5    1
     5     5     6    2
     6     6     7    1
     7     7     8   ar
     8     8     9   ar
     9     9    10   ar
    10    10    11    1
    11    11    12   ar
    12    12    13   ar
    13    13    14   ar
    14    14    15   ar
    15    15    16   ar
    16    10    17   ar
    17     6    18    1
    18    18    19    1
    19    18    20   am
    20    20    21    2
    21    20    22    1
    22    22    23    2
    23    23    24    1
    24    24    25   ar
    25    25    26   ar
    26    26    27   ar
    27    27    28   ar
    28    23     2    1
    29    28    24   ar
    30    22     5    1
    31    17     7   ar
    32    16    11   ar
    33     1    29    1
    34     1    30    1
    35     1    31    1
    36     8    32    1
    37     9    33    1
    38    12    34    1
    39    13    35    1
    40    14    36    1
    41    15    37    1
    42    16    38    1
    43    19    39    1
    44    19    40    1
    45    19    41    1
    46    25    42    1
    47    26    43    1
    48    27    44    1
