@<TRIPOS>MOLECULE
*****
 41 45 0 0 0
SMALL
GASTEIGER

@<TRIPOS>ATOM
      1 C          -3.6820    0.7010   -2.8271 C.3     1  UNL1        0.0087
      2 N          -2.7431    0.4596   -1.7611 N.am    1  UNL1       -0.2667
      3 C          -1.3512    0.5465   -1.9489 C.2     1  UNL1        0.2534
      4 O          -0.7240    0.7779   -2.9620 O.2     1  UNL1       -0.2695
      5 C          -0.8152    0.2937   -0.5969 C.2     1  UNL1        0.0762
      6 C           0.3034    0.1844    0.1232 C.2     1  UNL1        0.0919
      7 C           1.6312    0.3245   -0.3623 C.ar    1  UNL1        0.1508
      8 C           2.1185    0.9421   -1.5093 C.ar    1  UNL1       -0.0139
      9 C           3.5265    0.8007   -1.5261 C.ar    1  UNL1       -0.0121
     10 C           3.8704    0.1028   -0.3894 C.ar    1  UNL1        0.1706
     11 C           5.1733   -0.2931    0.0524 C.ar    1  UNL1        0.1697
     12 C           5.5157   -1.0063    1.1894 C.ar    1  UNL1       -0.0128
     13 C           6.9242   -1.1484    1.1884 C.ar    1  UNL1       -0.0232
     14 C           7.3661   -0.5156    0.0529 C.ar    1  UNL1        0.0927
     15 O           6.3210    0.0033   -0.6391 O.2     1  UNL1       -0.4598
     16 O           2.7295   -0.1784    0.3076 O.2     1  UNL1       -0.4504
     17 N          -0.0324   -0.1051    1.4485 N.am    1  UNL1       -0.2667
     18 C           0.8964   -0.3014    2.5338 C.3     1  UNL1        0.0087
     19 C          -1.4248   -0.2002    1.6286 C.2     1  UNL1        0.2534
     20 O          -2.0597   -0.4572    2.6298 O.2     1  UNL1       -0.2695
     21 C          -1.9408    0.0716    0.2771 C.2     1  UNL1        0.0762
     22 C          -3.0619    0.1752   -0.4357 C.2     1  UNL1        0.0918
     23 C          -4.3623    0.0345    0.1017 C.ar    1  UNL1        0.1497
     24 C          -5.4802   -0.6241   -0.4031 C.ar    1  UNL1       -0.0146
     25 C          -6.5374   -0.4748    0.5263 C.ar    1  UNL1       -0.0233
     26 C          -6.0231    0.2643    1.5589 C.ar    1  UNL1        0.0926
     27 O          -4.7289    0.5765    1.3156 O.2     1  UNL1       -0.4616
     28 H          -4.4320    1.4286   -2.5038 H       1  UNL1        0.0433
     29 H          -4.1627   -0.2417   -3.1020 H       1  UNL1        0.0433
     30 H          -3.1672    1.0962   -3.7077 H       1  UNL1        0.0433
     31 H           1.5276    1.4496   -2.2597 H       1  UNL1        0.0656
     32 H           4.2144    1.1643   -2.2773 H       1  UNL1        0.0657
     33 H           4.8196   -1.3784    1.9285 H       1  UNL1        0.0656
     34 H           7.5390   -1.6496    1.9225 H       1  UNL1        0.0649
     35 H           8.3417   -0.3540   -0.3842 H       1  UNL1        0.1029
     36 H           0.3603   -0.4139    3.4807 H       1  UNL1        0.0433
     37 H           1.5609    0.5640    2.6110 H       1  UNL1        0.0433
     38 H           1.4750   -1.2119    2.3542 H       1  UNL1        0.0433
     39 H          -5.5201   -1.1712   -1.3345 H       1  UNL1        0.0656
     40 H          -7.5424   -0.8662    0.4570 H       1  UNL1        0.0649
     41 H          -6.4232    0.6303    2.4942 H       1  UNL1        0.1029
@<TRIPOS>BOND
     1     1     2    1
     2     2     3   am
     3     3     4    2
     4     3     5    1
     5     5     6    2
     6     6     7    1
     7     7     8   ar
     8     8     9   ar
     9     9    10   ar
    10    10    11    1
    11    11    12   ar
    12    12    13   ar
    13    13    14   ar
    14    14    15   ar
    15    10    16   ar
    16     6    17    1
    17    17    18    1
    18    17    19   am
    19    19    20    2
    20    19    21    1
    21    21    22    2
    22    22    23    1
    23    23    24   ar
    24    24    25   ar
    25    25    26   ar
    26    26    27   ar
    27    22     2    1
    28    27    23   ar
    29    21     5    1
    30    16     7   ar
    31    15    11   ar
    32     1    28    1
    33     1    29    1
    34     1    30    1
    35     8    31    1
    36     9    32    1
    37    12    33    1
    38    13    34    1
    39    14    35    1
    40    18    36    1
    41    18    37    1
    42    18    38    1
    43    24    39    1
    44    25    40    1
    45    26    41    1
