@<TRIPOS>MOLECULE
*****
 41 45 0 0 0
SMALL
GASTEIGER

@<TRIPOS>ATOM
      1 C          -3.8158   -1.5401   -2.2866 C.3     1  UNL1        0.0087
      2 N          -2.8519   -0.9272   -1.4056 N.am    1  UNL1       -0.2667
      3 C          -1.4884   -1.2613   -1.4362 C.2     1  UNL1        0.2534
      4 O          -0.9033   -2.0583   -2.1403 O.2     1  UNL1       -0.2695
      5 C          -0.9132   -0.3989   -0.3879 C.2     1  UNL1        0.0762
      6 C           0.2217   -0.0646    0.2303 C.2     1  UNL1        0.0919
      7 C           1.5127   -0.5976   -0.0307 C.ar    1  UNL1        0.1507
      8 C           1.9052   -1.7620   -0.6797 C.ar    1  UNL1       -0.0139
      9 C           3.3203   -1.8224   -0.6675 C.ar    1  UNL1       -0.0147
     10 C           3.7674   -0.6968   -0.0060 C.ar    1  UNL1        0.1423
     11 C           5.1175   -0.2875    0.2788 C.ar    1  UNL1        0.0544
     12 C           6.2905   -0.9306   -0.0713 C.ar    1  UNL1       -0.0440
     13 C           7.4531   -0.2370    0.3791 C.ar    1  UNL1       -0.0540
     14 C           7.1323    0.9149    1.0598 C.ar    1  UNL1       -0.0236
     15 S           5.4425    1.1537    1.1527 S.2     1  UNL1       -0.0936
     16 O           2.6725    0.0300    0.3731 O.2     1  UNL1       -0.4530
     17 N          -0.0534    0.9130    1.1893 N.am    1  UNL1       -0.2667
     18 C           0.9105    1.5309    2.0679 C.3     1  UNL1        0.0087
     19 C          -1.4171    1.2471    1.2194 C.2     1  UNL1        0.2534
     20 O          -2.0032    2.0441    1.9225 O.2     1  UNL1       -0.2695
     21 C          -1.9912    0.3842    0.1711 C.2     1  UNL1        0.0762
     22 C          -3.1263    0.0500   -0.4467 C.2     1  UNL1        0.0918
     23 C          -4.4164    0.5845   -0.1838 C.ar    1  UNL1        0.1497
     24 C          -4.8015    1.7720    0.4357 C.ar    1  UNL1       -0.0146
     25 C          -6.2157    1.8346    0.4499 C.ar    1  UNL1       -0.0233
     26 C          -6.6433    0.6886   -0.1636 C.ar    1  UNL1        0.0926
     27 O          -5.5850   -0.0610   -0.5487 O.2     1  UNL1       -0.4616
     28 H          -4.3541   -0.7653   -2.8400 H       1  UNL1        0.0433
     29 H          -4.5124   -2.1428   -1.6971 H       1  UNL1        0.0433
     30 H          -3.3145   -2.1957   -3.0048 H       1  UNL1        0.0433
     31 H           1.2480   -2.5015   -1.1162 H       1  UNL1        0.0656
     32 H           3.9351   -2.6031   -1.0923 H       1  UNL1        0.0656
     33 H           6.3245   -1.8592   -0.6276 H       1  UNL1        0.0630
     34 H           8.4710   -0.5672    0.2110 H       1  UNL1        0.0623
     35 H           7.8075    1.6306    1.5084 H       1  UNL1        0.0693
     36 H           0.4089    2.1917    2.7810 H       1  UNL1        0.0433
     37 H           1.4468    0.7591    2.6275 H       1  UNL1        0.0433
     38 H           1.6086    2.1292    1.4756 H       1  UNL1        0.0433
     39 H          -4.1347    2.5239    0.8356 H       1  UNL1        0.0656
     40 H          -6.8381    2.6188    0.8571 H       1  UNL1        0.0649
     41 H          -7.6171    0.2791   -0.3933 H       1  UNL1        0.1029
@<TRIPOS>BOND
     1     1     2    1
     2     2     3   am
     3     3     4    2
     4     3     5    1
     5     5     6    2
     6     6     7    1
     7     7     8   ar
     8     8     9   ar
     9     9    10   ar
    10    10    11    1
    11    11    12   ar
    12    12    13   ar
    13    13    14   ar
    14    14    15   ar
    15    10    16   ar
    16     6    17    1
    17    17    18    1
    18    17    19   am
    19    19    20    2
    20    19    21    1
    21    21    22    2
    22    22    23    1
    23    23    24   ar
    24    24    25   ar
    25    25    26   ar
    26    26    27   ar
    27    22     2    1
    28    27    23   ar
    29    21     5    1
    30    16     7   ar
    31    15    11   ar
    32     1    28    1
    33     1    29    1
    34     1    30    1
    35     8    31    1
    36     9    32    1
    37    12    33    1
    38    13    34    1
    39    14    35    1
    40    18    36    1
    41    18    37    1
    42    18    38    1
    43    24    39    1
    44    25    40    1
    45    26    41    1
