@<TRIPOS>MOLECULE
*****
 41 45 0 0 0
SMALL
GASTEIGER

@<TRIPOS>ATOM
      1 C          -3.2801    3.0795   -0.5111 C.3     1  UNL1        0.0087
      2 N          -2.5475    1.8640   -0.2598 N.am    1  UNL1       -0.2687
      3 C          -1.1625    1.8622   -0.0044 C.2     1  UNL1        0.2533
      4 O          -0.3834    2.7886    0.0811 O.2     1  UNL1       -0.2696
      5 C          -0.8621    0.4284    0.1435 C.2     1  UNL1        0.0736
      6 C           0.1212   -0.4435    0.3678 C.2     1  UNL1        0.0629
      7 C           1.4727   -0.0820    0.5839 C.ar    1  UNL1        0.0349
      8 C           1.9946    0.8143    1.4985 C.ar    1  UNL1       -0.0451
      9 C           3.4129    0.9374    1.4128 C.ar    1  UNL1       -0.0458
     10 C           3.9636    0.1479    0.4203 C.ar    1  UNL1        0.0265
     11 C           5.3602    0.0174    0.0525 C.ar    1  UNL1        0.0259
     12 C           5.8963   -0.5912   -1.0715 C.ar    1  UNL1       -0.0464
     13 C           7.3212   -0.5389   -1.1117 C.ar    1  UNL1       -0.0541
     14 C           7.8410    0.1082   -0.0161 C.ar    1  UNL1       -0.0237
     15 S           6.6187    0.6460    1.0468 S.2     1  UNL1       -0.0961
     16 S           2.7297   -0.7227   -0.3976 S.2     1  UNL1       -0.0865
     17 N          -0.4034   -1.7360    0.3775 N.am    1  UNL1       -0.2687
     18 C           0.3296   -2.9510    0.6307 C.3     1  UNL1        0.0087
     19 C          -1.7887   -1.7349    0.1215 C.2     1  UNL1        0.2533
     20 O          -2.5659   -2.6628    0.0343 O.2     1  UNL1       -0.2696
     21 C          -2.0900   -0.3009   -0.0261 C.2     1  UNL1        0.0736
     22 C          -3.0731    0.5717   -0.2497 C.2     1  UNL1        0.0629
     23 C          -4.4250    0.2098   -0.4650 C.ar    1  UNL1        0.0343
     24 C          -4.9474   -0.6960   -1.3752 C.ar    1  UNL1       -0.0457
     25 C          -6.3642   -0.8245   -1.2908 C.ar    1  UNL1       -0.0541
     26 C          -6.8926   -0.0249   -0.3055 C.ar    1  UNL1       -0.0237
     27 S          -5.6861    0.8626    0.5133 S.2     1  UNL1       -0.0954
     28 H          -2.5888    3.9018   -0.7187 H       1  UNL1        0.0433
     29 H          -3.9381    2.9491   -1.3749 H       1  UNL1        0.0433
     30 H          -3.8631    3.3378    0.3769 H       1  UNL1        0.0433
     31 H           1.3860    1.3682    2.2045 H       1  UNL1        0.0630
     32 H           3.9903    1.5933    2.0533 H       1  UNL1        0.0629
     33 H           5.2990   -1.0561   -1.8466 H       1  UNL1        0.0629
     34 H           7.9298   -0.9544   -1.9055 H       1  UNL1        0.0623
     35 H           8.8816    0.2931    0.2127 H       1  UNL1        0.0693
     36 H          -0.3612   -3.7742    0.8356 H       1  UNL1        0.0433
     37 H           0.9161   -3.2079   -0.2555 H       1  UNL1        0.0433
     38 H           0.9849   -2.8199    1.4965 H       1  UNL1        0.0433
     39 H          -4.3350   -1.2535   -2.0751 H       1  UNL1        0.0629
     40 H          -6.9606   -1.4789   -1.9147 H       1  UNL1        0.0623
     41 H          -7.9304    0.0726   -0.0176 H       1  UNL1        0.0693
@<TRIPOS>BOND
     1     1     2    1
     2     2     3   am
     3     3     4    2
     4     3     5    1
     5     5     6    2
     6     6     7    1
     7     7     8   ar
     8     8     9   ar
     9     9    10   ar
    10    10    11    1
    11    11    12   ar
    12    12    13   ar
    13    13    14   ar
    14    14    15   ar
    15    10    16   ar
    16     6    17    1
    17    17    18    1
    18    17    19   am
    19    19    20    2
    20    19    21    1
    21    21    22    2
    22    22    23    1
    23    23    24   ar
    24    24    25   ar
    25    25    26   ar
    26    26    27   ar
    27    22     2    1
    28    27    23   ar
    29    21     5    1
    30    16     7   ar
    31    15    11   ar
    32     1    28    1
    33     1    29    1
    34     1    30    1
    35     8    31    1
    36     9    32    1
    37    12    33    1
    38    13    34    1
    39    14    35    1
    40    18    36    1
    41    18    37    1
    42    18    38    1
    43    24    39    1
    44    25    40    1
    45    26    41    1
