@<TRIPOS>MOLECULE
*****
 39 41 0 0 0
SMALL
GASTEIGER

@<TRIPOS>ATOM
      1 C          -3.8893   -2.9387   -0.1735 C.3     1  UNL1        0.0115
      2 N          -3.5035   -1.6071    0.2228 N.am    1  UNL1       -0.2372
      3 C          -4.3807   -0.6772    0.7093 C.2     1  UNL1        0.2536
      4 O          -5.5753   -0.7787    0.9100 O.2     1  UNL1       -0.2695
      5 C          -3.6037    0.5367    0.9551 C.ar    1  UNL1        0.0512
      6 C          -3.9952    1.7622    1.4516 C.ar    1  UNL1       -0.0488
      7 C          -3.0063    2.7416    1.5690 C.ar    1  UNL1       -0.0593
      8 C          -1.6684    2.4789    1.1913 C.ar    1  UNL1       -0.0397
      9 C          -1.2897    1.2295    0.6870 C.ar    1  UNL1        0.0463
     10 N           0.0162    0.8805    0.2851 N.am    1  UNL1       -0.2846
     11 C           1.1443    1.6760    0.2913 C.2     1  UNL1        0.2203
     12 O           1.1906    2.8488    0.6522 O.2     1  UNL1       -0.2752
     13 C           2.4072    0.9714   -0.2072 C.3     1  UNL1        0.0359
     14 C           2.7743   -0.2167    0.6881 C.3     1  UNL1       -0.0419
     15 C           4.0991   -0.8546    0.2679 C.3     1  UNL1       -0.0524
     16 C           4.3242   -0.8576   -1.2453 C.3     1  UNL1       -0.0530
     17 C           3.0211   -0.7318   -2.0237 C.3     1  UNL1       -0.0524
     18 C           2.2940    0.5719   -1.6894 C.3     1  UNL1       -0.0419
     19 C          -2.2946    0.2795    0.5857 C.ar    1  UNL1        0.0705
     20 C          -2.2411   -1.1003    0.1056 C.2     1  UNL1        0.2554
     21 O          -1.2237   -1.6244   -0.3117 O.2     1  UNL1       -0.2695
     22 H          -4.3766   -2.8786   -1.1511 H       1  UNL1        0.0434
     23 H          -4.6035   -3.3446    0.5485 H       1  UNL1        0.0434
     24 H          -3.0130   -3.5882   -0.2448 H       1  UNL1        0.0434
     25 H          -5.0246    1.9537    1.7369 H       1  UNL1        0.0625
     26 H          -3.2636    3.7266    1.9564 H       1  UNL1        0.0618
     27 H          -0.9471    3.2843    1.3076 H       1  UNL1        0.0636
     28 H           0.1202   -0.0733   -0.0647 H       1  UNL1        0.1548
     29 H           3.2202    1.7071   -0.1221 H       1  UNL1        0.0394
     30 H           2.8333    0.0957    1.7379 H       1  UNL1        0.0272
     31 H           1.9883   -0.9815    0.6472 H       1  UNL1        0.0272
     32 H           4.9333   -0.3282    0.7476 H       1  UNL1        0.0265
     33 H           4.1297   -1.8828    0.6486 H       1  UNL1        0.0265
     34 H           4.9821   -0.0209   -1.5131 H       1  UNL1        0.0265
     35 H           4.8530   -1.7722   -1.5367 H       1  UNL1        0.0265
     36 H           2.3721   -1.5850   -1.7901 H       1  UNL1        0.0265
     37 H           3.2198   -0.7742   -3.1006 H       1  UNL1        0.0265
     38 H           1.2524    0.4896   -2.0207 H       1  UNL1        0.0272
     39 H           2.7244    1.3828   -2.2921 H       1  UNL1        0.0272
@<TRIPOS>BOND
     1     1     2    1
     2     2     3   am
     3     3     4    2
     4     3     5    1
     5     5     6   ar
     6     6     7   ar
     7     7     8   ar
     8     8     9   ar
     9     9    10    1
    10    10    11   am
    11    11    12    2
    12    11    13    1
    13    13    14    1
    14    14    15    1
    15    15    16    1
    16    16    17    1
    17    17    18    1
    18     9    19   ar
    19    19    20    1
    20    20    21    2
    21    20     2   am
    22    19     5   ar
    23    18    13    1
    24     1    22    1
    25     1    23    1
    26     1    24    1
    27     6    25    1
    28     7    26    1
    29     8    27    1
    30    10    28    1
    31    13    29    1
    32    14    30    1
    33    14    31    1
    34    15    32    1
    35    15    33    1
    36    16    34    1
    37    16    35    1
    38    17    36    1
    39    17    37    1
    40    18    38    1
    41    18    39    1
