@<TRIPOS>MOLECULE
*****
 37 41 0 0 0
SMALL
GASTEIGER

@<TRIPOS>ATOM
      1 C           5.8894    1.6002   -0.8573 C.3     1  UNL1        0.0000
      2 N           5.0208    0.5827   -0.3255 N.am    1  UNL1        0.0000
      3 C           5.4775   -0.6371    0.1413 C.2     1  UNL1        0.0000
      4 O           6.6207   -1.0516    0.2183 O.2     1  UNL1        0.0000
      5 C           4.2837   -1.3503    0.5095 C.ar    1  UNL1        0.0000
      6 C           3.9765   -2.5739    1.0269 C.ar    1  UNL1        0.0000
      7 S           2.2635   -2.7244    1.1722 S.2     1  UNL1        0.0000
      8 C           1.9684   -1.1270    0.5533 C.ar    1  UNL1        0.0000
      9 C           0.6297   -0.6126    0.4498 C.ar    1  UNL1        0.0000
     10 C          -0.4736   -1.2505   -0.1076 C.ar    1  UNL1        0.0000
     11 C          -1.6003   -0.4298    0.0038 C.ar    1  UNL1        0.0000
     12 C          -1.3812    0.7802    0.6274 C.ar    1  UNL1        0.0000
     13 S           0.2246    0.9461    1.0973 S.2     1  UNL1        0.0000
     14 C          -2.5106    1.6500    0.7669 C.ar    1  UNL1        0.0000
     15 S          -2.6693    3.1792    1.4535 S.2     1  UNL1        0.0000
     16 C          -4.3580    3.2184    1.0653 C.ar    1  UNL1        0.0000
     17 C          -4.7919    2.0723    0.4185 C.ar    1  UNL1        0.0000
     18 C          -3.7133    1.1968    0.2634 C.ar    1  UNL1        0.0000
     19 SI         -3.4470   -0.5442   -0.4967 Si      1  UNL1        0.0000
     20 C          -3.6941   -0.5748   -2.3242 C.3     1  UNL1        0.0000
     21 C          -4.3543   -1.8692    0.4108 C.3     1  UNL1        0.0000
     22 C           3.1646   -0.5417    0.2342 C.ar    1  UNL1        0.0000
     23 C           3.6375    0.6963   -0.3354 C.2     1  UNL1        0.0000
     24 O           2.9664    1.6177   -0.7672 O.2     1  UNL1        0.0000
     25 H           6.8951    1.5019   -0.4402 H       1  UNL1        0.0000
     26 H           5.9379    1.4770   -1.9434 H       1  UNL1        0.0000
     27 H           5.4841    2.5910   -0.6337 H       1  UNL1        0.0000
     28 H           4.6389   -3.3782    1.3182 H       1  UNL1        0.0000
     29 H          -0.4381   -2.2341   -0.5600 H       1  UNL1        0.0000
     30 H          -4.9405    4.0880    1.3363 H       1  UNL1        0.0000
     31 H          -5.8135    1.9131    0.0969 H       1  UNL1        0.0000
     32 H          -3.3566   -1.5235   -2.7531 H       1  UNL1        0.0000
     33 H          -4.7504   -0.4517   -2.5826 H       1  UNL1        0.0000
     34 H          -3.1369    0.2281   -2.8171 H       1  UNL1        0.0000
     35 H          -4.0397   -2.8631    0.0776 H       1  UNL1        0.0000
     36 H          -5.4338   -1.7917    0.2485 H       1  UNL1        0.0000
     37 H          -4.1764   -1.8098    1.4891 H       1  UNL1        0.0000
@<TRIPOS>BOND
     1     1     2    1
     2     2     3   am
     3     3     4    2
     4     3     5    1
     5     5     6   ar
     6     6     7   ar
     7     7     8   ar
     8     8     9    1
     9     9    10   ar
    10    10    11   ar
    11    11    12   ar
    12    12    13   ar
    13    12    14    1
    14    14    15   ar
    15    15    16   ar
    16    16    17   ar
    17    17    18   ar
    18    18    19    1
    19    19    20    1
    20    19    21    1
    21     8    22   ar
    22    22    23    1
    23    23    24    2
    24    23     2   am
    25    22     5   ar
    26    13     9   ar
    27    18    14   ar
    28    19    11    1
    29     1    25    1
    30     1    26    1
    31     1    27    1
    32     6    28    1
    33    10    29    1
    34    16    30    1
    35    17    31    1
    36    20    32    1
    37    20    33    1
    38    20    34    1
    39    21    35    1
    40    21    36    1
    41    21    37    1
