@<TRIPOS>MOLECULE
*****
 37 41 0 0 0
SMALL
GASTEIGER

@<TRIPOS>ATOM
      1 C          -5.0630   -0.6506    2.4749 C.3     1  UNL1        0.0115
      2 N          -4.4948   -0.5218    1.1582 N.am    1  UNL1       -0.2372
      3 C          -5.2543   -0.4099    0.0072 C.2     1  UNL1        0.2541
      4 O          -6.4664   -0.4122   -0.1172 O.2     1  UNL1       -0.2695
      5 C          -4.2868   -0.2732   -1.0485 C.ar    1  UNL1        0.0570
      6 C          -4.3106   -0.1351   -2.4039 C.ar    1  UNL1       -0.0108
      7 S          -2.6964   -0.0286   -2.9991 S.2     1  UNL1       -0.0946
      8 C          -1.9860   -0.1774   -1.4161 C.ar    1  UNL1        0.0388
      9 C          -0.5577   -0.1514   -1.2094 C.ar    1  UNL1        0.0275
     10 C           0.1228    0.4269   -0.1399 C.ar    1  UNL1       -0.0418
     11 C           1.5194    0.2414   -0.2572 C.ar    1  UNL1       -0.0215
     12 C           1.8439   -0.4615   -1.3997 C.ar    1  UNL1        0.0308
     13 S           0.5421   -0.9071   -2.3287 S.2     1  UNL1       -0.0869
     14 C           3.2491   -0.6192   -1.4660 C.ar    1  UNL1        0.0302
     15 S           4.3288   -1.3282   -2.5142 S.2     1  UNL1       -0.0958
     16 C           5.6488   -0.8426   -1.5012 C.ar    1  UNL1       -0.0234
     17 C           5.2349   -0.1444   -0.3759 C.ar    1  UNL1       -0.0501
     18 C           3.8271   -0.0176   -0.3629 C.ar    1  UNL1       -0.0221
     19 C           2.7685    0.6131    0.5557 C.3     1  UNL1        0.0173
     20 C           2.7574   -0.0428    1.9376 C.3     1  UNL1       -0.0517
     21 C           2.9430    2.1293    0.6597 C.3     1  UNL1       -0.0517
     22 C          -2.9933   -0.2902   -0.4920 C.ar    1  UNL1        0.0646
     23 C          -3.1277   -0.4406    0.9367 C.2     1  UNL1        0.2547
     24 O          -2.2325   -0.4707    1.7642 O.2     1  UNL1       -0.2695
     25 H          -4.4855   -1.3774    3.0541 H       1  UNL1        0.0434
     26 H          -4.9994    0.3215    2.9740 H       1  UNL1        0.0434
     27 H          -6.1096   -0.9616    2.4183 H       1  UNL1        0.0434
     28 H          -5.1607   -0.0913   -3.0718 H       1  UNL1        0.0701
     29 H          -0.3616    0.9491    0.6758 H       1  UNL1        0.0632
     30 H           6.6592   -1.0979   -1.7895 H       1  UNL1        0.0693
     31 H           5.9130    0.2405    0.3751 H       1  UNL1        0.0626
     32 H           1.9353    0.3427    2.5516 H       1  UNL1        0.0241
     33 H           3.6953    0.1459    2.4723 H       1  UNL1        0.0241
     34 H           2.6326   -1.1304    1.8694 H       1  UNL1        0.0241
     35 H           3.8869    2.3855    1.1544 H       1  UNL1        0.0241
     36 H           2.1269    2.5826    1.2339 H       1  UNL1        0.0241
     37 H           2.9517    2.6052   -0.3284 H       1  UNL1        0.0241
@<TRIPOS>BOND
     1     1     2    1
     2     2     3   am
     3     3     4    2
     4     3     5    1
     5     5     6   ar
     6     6     7   ar
     7     7     8   ar
     8     8     9    1
     9     9    10   ar
    10    10    11   ar
    11    11    12   ar
    12    12    13   ar
    13    12    14    1
    14    14    15   ar
    15    15    16   ar
    16    16    17   ar
    17    17    18   ar
    18    18    19    1
    19    19    20    1
    20    19    21    1
    21     8    22   ar
    22    22    23    1
    23    23    24    2
    24    23     2   am
    25    22     5   ar
    26    13     9   ar
    27    18    14   ar
    28    19    11    1
    29     1    25    1
    30     1    26    1
    31     1    27    1
    32     6    28    1
    33    10    29    1
    34    16    30    1
    35    17    31    1
    36    20    32    1
    37    20    33    1
    38    20    34    1
    39    21    35    1
    40    21    36    1
    41    21    37    1
