@<TRIPOS>MOLECULE
*****
 29 30 0 0 0
SMALL
GASTEIGER

@<TRIPOS>ATOM
      1 C          -1.8738    1.8687    1.2809 C.3     1  UNL1        0.0109
      2 N          -1.7791    0.4971    0.8392 N.am    1  UNL1       -0.2443
      3 C          -2.1445    0.0931   -0.4117 C.2     1  UNL1        0.2231
      4 O          -2.5659    0.8005   -1.3140 O.2     1  UNL1       -0.2751
      5 C          -2.0072   -1.3978   -0.5051 C.3     1  UNL1        0.0451
      6 C          -1.2539   -1.7712    0.7620 C.3     1  UNL1        0.0948
      7 S           0.4780   -2.3321    0.5189 S.3     1  UNL1       -0.1112
      8 C           1.2006   -1.0196   -0.4684 C.ar    1  UNL1        0.0226
      9 C           1.2902   -1.2737   -1.8488 C.ar    1  UNL1       -0.0475
     10 C           1.7945   -0.3151   -2.7312 C.ar    1  UNL1       -0.0607
     11 C           2.2282    0.9143   -2.2490 C.ar    1  UNL1       -0.0609
     12 C           2.1757    1.1762   -0.8816 C.ar    1  UNL1       -0.0467
     13 C           1.6871    0.2090    0.0145 C.ar    1  UNL1        0.0722
     14 C           1.6915    0.6073    1.4356 C.2     1  UNL1        0.3379
     15 O           1.3728    1.7089    1.8455 O.2     1  UNL1       -0.2451
     16 O           2.1330   -0.3627    2.2467 O.3     1  UNL1       -0.4771
     17 C          -1.3205   -0.5298    1.6159 C.2     1  UNL1        0.2353
     18 O          -1.0003   -0.4678    2.7947 O.2     1  UNL1       -0.2740
     19 H          -1.2634    2.4936    0.6220 H       1  UNL1        0.0433
     20 H          -1.5357    1.9771    2.3142 H       1  UNL1        0.0433
     21 H          -2.9147    2.1946    1.1955 H       1  UNL1        0.0433
     22 H          -3.0158   -1.8266   -0.4926 H       1  UNL1        0.0374
     23 H          -1.5143   -1.6924   -1.4334 H       1  UNL1        0.0374
     24 H          -1.7845   -2.5775    1.2797 H       1  UNL1        0.0515
     25 H           0.9581   -2.2269   -2.2578 H       1  UNL1        0.0629
     26 H           1.8439   -0.5300   -3.7963 H       1  UNL1        0.0618
     27 H           2.6134    1.6658   -2.9342 H       1  UNL1        0.0618
     28 H           2.5255    2.1383   -0.5096 H       1  UNL1        0.0626
     29 H           1.9809   -0.0212    3.1530 H       1  UNL1        0.2954
@<TRIPOS>BOND
     1     1     2    1
     2     2     3   am
     3     3     4    2
     4     3     5    1
     5     5     6    1
     6     6     7    1
     7     7     8    1
     8     8     9   ar
     9     9    10   ar
    10    10    11   ar
    11    11    12   ar
    12    12    13   ar
    13    13    14    1
    14    14    15    2
    15    14    16    1
    16     6    17    1
    17    17    18    2
    18    17     2   am
    19    13     8   ar
    20     1    19    1
    21     1    20    1
    22     1    21    1
    23     5    22    1
    24     5    23    1
    25     6    24    1
    26     9    25    1
    27    10    26    1
    28    11    27    1
    29    12    28    1
    30    16    29    1
