@<TRIPOS>MOLECULE
*****
 26 27 0 0 0
SMALL
GASTEIGER

@<TRIPOS>ATOM
      1 C          -2.9471   -1.7918   -0.9464 C.3     1  UNL1        0.0167
      2 N          -2.0912   -0.7373   -0.4859 N.ar    1  UNL1       -0.2951
      3 C          -2.5136    0.5559   -0.1083 C.ar    1  UNL1        0.3297
      4 O          -3.6545    0.9892   -0.1192 O.2     1  UNL1       -0.2463
      5 N          -1.3467    1.2481    0.2866 N.ar    1  UNL1       -0.2950
      6 C          -1.3049    2.5997    0.7632 C.3     1  UNL1        0.0167
      7 C          -0.2423    0.3962    0.1563 C.ar    1  UNL1        0.0702
      8 C           1.0917    0.6241    0.4259 C.ar    1  UNL1       -0.0239
      9 C           1.9795   -0.4377    0.1941 C.ar    1  UNL1        0.0386
     10 C           3.4377   -0.3042    0.4542 C.2     1  UNL1        0.2416
     11 N           3.9708    0.9549    0.4362 N.am    1  UNL1       -0.3253
     12 O           4.1477   -1.2831    0.6435 O.2     1  UNL1       -0.2704
     13 C           1.5042   -1.6874   -0.2760 C.ar    1  UNL1       -0.0476
     14 C           0.1458   -1.8945   -0.5428 C.ar    1  UNL1       -0.0353
     15 C          -0.7048   -0.8338   -0.3198 C.ar    1  UNL1        0.0696
     16 H          -2.8812   -2.6380   -0.2564 H       1  UNL1        0.0457
     17 H          -3.9844   -1.4489   -0.9907 H       1  UNL1        0.0457
     18 H          -2.6317   -2.1037   -1.9462 H       1  UNL1        0.0457
     19 H          -0.6534    3.1923    0.1145 H       1  UNL1        0.0457
     20 H          -2.3068    3.0376    0.7579 H       1  UNL1        0.0457
     21 H          -0.9173    2.6102    1.7860 H       1  UNL1        0.0457
     22 H           1.4237    1.5742    0.8231 H       1  UNL1        0.0646
     23 H           3.4986    1.7336    0.0005 H       1  UNL1        0.1453
     24 H           4.9813    1.0009    0.4876 H       1  UNL1        0.1453
     25 H           2.2080   -2.5044   -0.4342 H       1  UNL1        0.0626
     26 H          -0.2092   -2.8523   -0.9037 H       1  UNL1        0.0639
@<TRIPOS>BOND
     1     1     2    1
     2     2     3   ar
     3     3     4    2
     4     3     5   ar
     5     5     6    1
     6     5     7   ar
     7     7     8   ar
     8     8     9   ar
     9     9    10    1
    10    10    11   am
    11    10    12    2
    12     9    13   ar
    13    13    14   ar
    14    14    15   ar
    15    15     2   ar
    16    15     7   ar
    17     1    16    1
    18     1    17    1
    19     1    18    1
    20     6    19    1
    21     6    20    1
    22     6    21    1
    23     8    22    1
    24    11    23    1
    25    11    24    1
    26    13    25    1
    27    14    26    1
