@<TRIPOS>MOLECULE
*****
 38 42 0 0 0
SMALL
GASTEIGER

@<TRIPOS>ATOM
      1 C           2.2304    1.5191   -0.0435 C.3     1  UNL1        0.0125
      2 N           2.3548    0.1007    0.2311 N.ar    1  UNL1       -0.3421
      3 C           1.2978   -0.7906    0.2508 C.ar    1  UNL1        0.0560
      4 C          -0.0379   -0.4921   -0.1849 C.ar    1  UNL1        0.0362
      5 C          -0.4248   -0.0111   -1.4172 C.ar    1  UNL1       -0.0449
      6 C          -1.8365    0.1670   -1.5074 C.ar    1  UNL1       -0.0462
      7 C          -2.4976   -0.1831   -0.3440 C.ar    1  UNL1        0.0221
      8 C          -3.9303   -0.1533   -0.0461 C.ar    1  UNL1        0.0169
      9 C          -4.4647    0.3050    1.1827 C.ar    1  UNL1       -0.0513
     10 C          -5.8497    0.3441    1.4715 C.ar    1  UNL1       -0.0590
     11 C          -6.8328   -0.0694    0.5595 C.ar    1  UNL1       -0.0335
     12 C          -6.3674   -0.5399   -0.6910 C.ar    1  UNL1        0.1005
     13 N          -7.1462   -0.9795   -1.6917 N.ar    1  UNL1       -0.1908
     14 S          -6.1255   -1.4253   -2.9207 S.2     1  UNL1        0.1165
     15 N          -4.6537   -1.0629   -2.2500 N.ar    1  UNL1       -0.1902
     16 C          -4.8876   -0.5852   -1.0129 C.ar    1  UNL1        0.1080
     17 S          -1.3822   -0.7289    0.8426 S.2     1  UNL1       -0.0867
     18 C           1.7743   -1.9768    0.7718 C.ar    1  UNL1       -0.0351
     19 C           3.1550   -1.8149    1.0135 C.ar    1  UNL1       -0.0351
     20 C           3.5250   -0.5335    0.6291 C.ar    1  UNL1        0.0559
     21 C           4.8405    0.0304    0.6477 C.2     1  UNL1        0.0356
     22 S           5.9660   -0.3828    1.9009 S.3     1  UNL1       -0.0952
     23 C           7.1530    0.6620    1.2004 C.2     1  UNL1       -0.0237
     24 C           6.6743    1.3028   -0.0190 C.2     1  UNL1       -0.0541
     25 C           5.4205    0.9581   -0.3233 C.2     1  UNL1       -0.0455
     26 H           2.3971    1.6759   -1.1118 H       1  UNL1        0.0456
     27 H           1.2347    1.8663    0.2438 H       1  UNL1        0.0456
     28 H           2.9616    2.0717    0.5511 H       1  UNL1        0.0456
     29 H           0.2660    0.1885   -2.2271 H       1  UNL1        0.0630
     30 H          -2.3424    0.5279   -2.3948 H       1  UNL1        0.0629
     31 H          -3.7826    0.6600    1.9571 H       1  UNL1        0.0624
     32 H          -6.1667    0.7144    2.4472 H       1  UNL1        0.0618
     33 H          -7.8902   -0.0349    0.7937 H       1  UNL1        0.0640
     34 H           1.1918   -2.8742    0.9381 H       1  UNL1        0.0639
     35 H           3.8267   -2.5731    1.3989 H       1  UNL1        0.0639
     36 H           8.1625    0.8553    1.5820 H       1  UNL1        0.0693
     37 H           7.2993    1.9665   -0.5972 H       1  UNL1        0.0623
     38 H           4.8875    1.2960   -1.1975 H       1  UNL1        0.0629
@<TRIPOS>BOND
     1     1     2    1
     2     2     3   ar
     3     3     4    1
     4     4     5   ar
     5     5     6   ar
     6     6     7   ar
     7     7     8    1
     8     8     9   ar
     9     9    10   ar
    10    10    11   ar
    11    11    12   ar
    12    12    13   ar
    13    13    14   ar
    14    14    15   ar
    15    15    16   ar
    16     7    17   ar
    17     3    18   ar
    18    18    19   ar
    19    19    20   ar
    20    20    21    1
    21    21    22    2
    22    22    23    2
    23    23    24    1
    24    24    25    2
    25    20     2   ar
    26    25    21    1
    27    17     4   ar
    28    16     8   ar
    29    16    12   ar
    30     1    26    1
    31     1    27    1
    32     1    28    1
    33     5    29    1
    34     6    30    1
    35     9    31    1
    36    10    32    1
    37    11    33    1
    38    18    34    1
    39    19    35    1
    40    23    36    1
    41    24    37    1
    42    25    38    1
