@<TRIPOS>MOLECULE
*****
 46 52 0 0 0
SMALL
GASTEIGER

@<TRIPOS>ATOM
      1 SI         -4.3800   -1.8573   -0.1393 Si      1  UNL1        0.0000
      2 C          -5.7989   -0.7221    0.2694 C.2     1  UNL1        0.0000
      3 C          -5.3993    0.5372    0.5009 C.2     1  UNL1        0.0000
      4 C          -3.9549    0.7028    0.3752 C.ar    1  UNL1        0.0000
      5 C          -3.1059   -0.4225    0.0314 C.ar    1  UNL1        0.0000
      6 C          -1.6224   -0.4058   -0.1304 C.ar    1  UNL1        0.0000
      7 C          -0.9783    0.8662    0.0816 C.ar    1  UNL1        0.0000
      8 C           0.4080    1.0562   -0.0272 C.ar    1  UNL1        0.0000
      9 C           1.2589    0.0029   -0.3496 C.ar    1  UNL1        0.0000
     10 C           2.6897    0.3008   -0.4359 C.ar    1  UNL1        0.0000
     11 C           3.3315    0.7538   -1.6184 C.ar    1  UNL1        0.0000
     12 C           4.7288    1.0564   -1.7105 C.ar    1  UNL1        0.0000
     13 C           5.6323    0.9428   -0.6324 C.ar    1  UNL1        0.0000
     14 C           5.0004    0.5022    0.5304 C.ar    1  UNL1        0.0000
     15 C           5.6759    0.3171    1.7112 C.ar    1  UNL1        0.0000
     16 S           4.6205   -0.2298    2.9532 S.2     1  UNL1        0.0000
     17 C           3.2568   -0.2177    1.9051 C.ar    1  UNL1        0.0000
     18 C           3.5948    0.1937    0.6362 C.ar    1  UNL1        0.0000
     19 C           0.7141   -1.2816   -0.5792 C.ar    1  UNL1        0.0000
     20 C           1.5775   -2.3573   -0.9121 C.ar    1  UNL1        0.0000
     21 C           1.1139   -3.6435   -1.1506 C.ar    1  UNL1        0.0000
     22 C          -0.2373   -3.8859   -1.0624 C.ar    1  UNL1        0.0000
     23 C          -1.1104   -2.8414   -0.7357 C.ar    1  UNL1        0.0000
     24 C          -0.7032   -1.5052   -0.4773 C.ar    1  UNL1        0.0000
     25 C          -1.8293    1.9572    0.4182 C.ar    1  UNL1        0.0000
     26 C          -1.4832    3.2660    0.6726 C.ar    1  UNL1        0.0000
     27 N          -2.6420    3.9574    0.9554 N.ar    1  UNL1        0.0000
     28 C          -3.7250    3.1115    0.8859 C.ar    1  UNL1        0.0000
     29 C          -3.2407    1.8707    0.5551 C.ar    1  UNL1        0.0000
     30 H          -4.1835   -2.9052    0.8937 H       1  UNL1        0.0000
     31 H          -4.4572   -2.3735   -1.5291 H       1  UNL1        0.0000
     32 H          -6.8149   -1.0838    0.3043 H       1  UNL1        0.0000
     33 H          -6.0581    1.3553    0.7548 H       1  UNL1        0.0000
     34 H           0.8417    2.0385    0.1455 H       1  UNL1        0.0000
     35 H           2.7268    0.8788   -2.5185 H       1  UNL1        0.0000
     36 H           5.1136    1.3952   -2.6733 H       1  UNL1        0.0000
     37 H           6.6847    1.1767   -0.7227 H       1  UNL1        0.0000
     38 H           6.7249    0.4682    1.9247 H       1  UNL1        0.0000
     39 H           2.2897   -0.5164    2.2869 H       1  UNL1        0.0000
     40 H           2.6529   -2.2041   -0.9912 H       1  UNL1        0.0000
     41 H           1.8070   -4.4407   -1.4018 H       1  UNL1        0.0000
     42 H          -0.6279   -4.8836   -1.2452 H       1  UNL1        0.0000
     43 H          -2.1458   -3.1350   -0.6946 H       1  UNL1        0.0000
     44 H          -0.5344    3.7837    0.6845 H       1  UNL1        0.0000
     45 H          -2.6883    4.9425    1.1820 H       1  UNL1        0.0000
     46 H          -4.7233    3.4786    1.0791 H       1  UNL1        0.0000
@<TRIPOS>BOND
     1     1     2    1
     2     2     3    2
     3     3     4    1
     4     4     5   ar
     5     5     6   ar
     6     6     7   ar
     7     7     8   ar
     8     8     9   ar
     9     9    10    1
    10    10    11   ar
    11    11    12   ar
    12    12    13   ar
    13    13    14   ar
    14    14    15   ar
    15    15    16   ar
    16    16    17   ar
    17    17    18   ar
    18     9    19   ar
    19    19    20   ar
    20    20    21   ar
    21    21    22   ar
    22    22    23   ar
    23    23    24   ar
    24     7    25   ar
    25    25    26   ar
    26    26    27   ar
    27    27    28   ar
    28    28    29   ar
    29     5     1    1
    30    24     6   ar
    31    29    25   ar
    32    29     4   ar
    33    18    10   ar
    34    24    19   ar
    35    18    14   ar
    36     1    30    1
    37     1    31    1
    38     2    32    1
    39     3    33    1
    40     8    34    1
    41    11    35    1
    42    12    36    1
    43    13    37    1
    44    15    38    1
    45    17    39    1
    46    20    40    1
    47    21    41    1
    48    22    42    1
    49    23    43    1
    50    26    44    1
    51    27    45    1
    52    28    46    1
