@<TRIPOS>MOLECULE
*****
 31 34 0 0 0
SMALL
GASTEIGER

@<TRIPOS>ATOM
      1 C           0.4843   -2.1986    0.5547 C.3     1  UNL1        0.0124
      2 N          -0.1180   -0.9222    0.2251 N.ar    1  UNL1       -0.3429
      3 C           0.5884    0.2465   -0.0540 C.ar    1  UNL1        0.0499
      4 C           2.0471    0.3357   -0.1081 C.ar    1  UNL1       -0.0015
      5 C           2.7364    1.1244    0.8199 C.ar    1  UNL1       -0.0526
      6 C           4.1291    1.2141    0.7728 C.ar    1  UNL1       -0.0611
      7 C           4.8403    0.5214   -0.2060 C.ar    1  UNL1       -0.0617
      8 C           4.1604   -0.2579   -1.1409 C.ar    1  UNL1       -0.0611
      9 C           2.7677   -0.3488   -1.0941 C.ar    1  UNL1       -0.0526
     10 C          -0.3369    1.2648   -0.2414 C.ar    1  UNL1       -0.0261
     11 C          -1.5810    0.6613   -0.1094 C.ar    1  UNL1        0.0359
     12 C          -2.8746    1.2356   -0.2253 C.ar    1  UNL1        0.1953
     13 N          -3.1775    2.4936   -0.4823 N.ar    1  UNL1       -0.0019
     14 O          -4.5888    2.4957   -0.4818 O.2     1  UNL1       -0.0982
     15 N          -5.0361    1.1408   -0.2055 N.ar    1  UNL1        0.0584
     16 O          -6.2755    0.9568   -0.1673 O.co2   1  UNL1       -0.5773
     17 C          -3.9583    0.3593   -0.0461 C.ar    1  UNL1        0.3004
     18 C          -3.9234   -1.0079    0.2321 C.ar    1  UNL1        0.0198
     19 C          -2.6173   -1.5315    0.3395 C.ar    1  UNL1       -0.0311
     20 C          -1.4842   -0.6911    0.1690 C.ar    1  UNL1        0.0519
     21 H           1.3901   -2.0336    1.1429 H       1  UNL1        0.0456
     22 H           0.7154   -2.7158   -0.3796 H       1  UNL1        0.0456
     23 H          -0.2125   -2.7904    1.1525 H       1  UNL1        0.0456
     24 H           2.1919    1.6705    1.5868 H       1  UNL1        0.0624
     25 H           4.6576    1.8275    1.4980 H       1  UNL1        0.0618
     26 H           5.9241    0.5953   -0.2445 H       1  UNL1        0.0618
     27 H           4.7137   -0.7885   -1.9113 H       1  UNL1        0.0618
     28 H           2.2479   -0.9451   -1.8399 H       1  UNL1        0.0624
     29 H          -0.1122    2.2999   -0.4652 H       1  UNL1        0.0646
     30 H          -4.8091   -1.6210    0.3563 H       1  UNL1        0.0687
     31 H          -2.4889   -2.5908    0.5534 H       1  UNL1        0.0640
@<TRIPOS>UNITY_ATOM_ATTR
15 1
charge 1
16 1
charge -1
@<TRIPOS>BOND
     1     1     2    1
     2     2     3   ar
     3     3     4    1
     4     4     5   ar
     5     5     6   ar
     6     6     7   ar
     7     7     8   ar
     8     8     9   ar
     9     3    10   ar
    10    10    11   ar
    11    11    12   ar
    12    12    13   ar
    13    13    14   ar
    14    14    15   ar
    15    15    16    1
    16    15    17   ar
    17    17    18   ar
    18    18    19   ar
    19    19    20   ar
    20    20     2   ar
    21     9     4   ar
    22    20    11   ar
    23    17    12   ar
    24     1    21    1
    25     1    22    1
    26     1    23    1
    27     5    24    1
    28     6    25    1
    29     7    26    1
    30     8    27    1
    31     9    28    1
    32    10    29    1
    33    18    30    1
    34    19    31    1
