@<TRIPOS>MOLECULE
*****
 34 38 0 0 0
SMALL
GASTEIGER

@<TRIPOS>ATOM
      1 C          -0.2382   -0.3530   -1.2080 C.3     1  UNL1        0.0125
      2 N           0.0074   -0.1022    0.1990 N.ar    1  UNL1       -0.3420
      3 C          -0.8707   -0.3788    1.2336 C.ar    1  UNL1        0.0581
      4 C          -0.1920   -0.1401    2.4161 C.ar    1  UNL1       -0.0350
      5 C           1.0994    0.3295    2.0929 C.ar    1  UNL1       -0.0351
      6 C           1.2008    0.3728    0.7161 C.ar    1  UNL1        0.0570
      7 C           2.3206    0.8084   -0.0621 C.ar    1  UNL1        0.0499
      8 S           2.2605    2.1584   -1.1355 S.2     1  UNL1       -0.0935
      9 C           3.9162    2.0005   -1.5854 C.ar    1  UNL1       -0.0154
     10 C           4.4332    0.9528   -0.9063 C.ar    1  UNL1       -0.0032
     11 C           5.7191    0.3627   -0.8687 C.ar    1  UNL1       -0.0465
     12 C           5.7787   -0.7297    0.0044 C.ar    1  UNL1       -0.0231
     13 S           4.2906   -1.1359    0.8503 S.2     1  UNL1       -0.0955
     14 C           3.5781    0.2646   -0.0446 C.ar    1  UNL1        0.0355
     15 C          -2.2291   -0.8369    1.0787 C.ar    1  UNL1        0.0631
     16 S          -2.7917   -2.2011    1.9782 S.2     1  UNL1       -0.0908
     17 C          -4.3658   -2.1131    1.3068 C.ar    1  UNL1        0.0038
     18 C          -4.4734   -1.0687    0.4268 C.ar    1  UNL1        0.0968
     19 N          -5.6285   -0.7786   -0.2345 N.ar    1  UNL1       -0.2514
     20 C          -5.4644    0.3117   -1.0321 C.ar    1  UNL1        0.0464
     21 C          -4.2758    1.0383   -1.1698 C.ar    1  UNL1        0.0464
     22 N          -3.1077    0.7616   -0.5290 N.ar    1  UNL1       -0.2507
     23 C          -3.2413   -0.3257    0.2893 C.ar    1  UNL1        0.1053
     24 H           0.6889   -0.6816   -1.6851 H       1  UNL1        0.0456
     25 H          -0.9728   -1.1530   -1.3219 H       1  UNL1        0.0456
     26 H          -0.5963    0.5719   -1.6653 H       1  UNL1        0.0456
     27 H          -0.5947   -0.2698    3.4127 H       1  UNL1        0.0639
     28 H           1.8716    0.6242    2.7922 H       1  UNL1        0.0639
     29 H           4.3781    2.6731   -2.2940 H       1  UNL1        0.0700
     30 H           6.5767    0.6979   -1.4391 H       1  UNL1        0.0629
     31 H           6.6426   -1.3467    0.2106 H       1  UNL1        0.0694
     32 H          -5.1308   -2.8206    1.5914 H       1  UNL1        0.0715
     33 H          -6.3506    0.6074   -1.5870 H       1  UNL1        0.0845
     34 H          -4.2387    1.9000   -1.8307 H       1  UNL1        0.0845
@<TRIPOS>BOND
     1     1     2    1
     2     2     3   ar
     3     3     4   ar
     4     4     5   ar
     5     5     6   ar
     6     6     7    1
     7     7     8   ar
     8     8     9   ar
     9     9    10   ar
    10    10    11   ar
    11    11    12   ar
    12    12    13   ar
    13    13    14   ar
    14     3    15    1
    15    15    16   ar
    16    16    17   ar
    17    17    18   ar
    18    18    19   ar
    19    19    20   ar
    20    20    21   ar
    21    21    22   ar
    22    22    23   ar
    23     6     2   ar
    24    14     7   ar
    25    23    15   ar
    26    14    10   ar
    27    23    18   ar
    28     1    24    1
    29     1    25    1
    30     1    26    1
    31     4    27    1
    32     5    28    1
    33     9    29    1
    34    11    30    1
    35    12    31    1
    36    17    32    1
    37    20    33    1
    38    21    34    1
