@<TRIPOS>MOLECULE
*****
 37 38 0 0 0
SMALL
GASTEIGER

@<TRIPOS>ATOM
      1 C          -1.1858   -2.3280   -0.0889 C.3     1  UNL1        0.0136
      2 N          -1.7277   -1.0031   -0.2792 N.ar    1  UNL1       -0.3294
      3 C          -1.2710   -0.0443   -1.1595 C.ar    1  UNL1        0.1278
      4 C          -0.1055   -0.2159   -2.0765 C.3     1  UNL1        0.0699
      5 N           1.0574    0.3408   -1.4225 N.am    1  UNL1       -0.3078
      6 C           1.9499   -0.4478   -0.7360 C.2     1  UNL1        0.2188
      7 O           1.8768   -1.6749   -0.7503 O.2     1  UNL1       -0.2752
      8 C           3.0279    0.3163    0.0557 C.3     1  UNL1        0.0386
      9 C           2.3642    1.1554    1.1581 C.3     1  UNL1       -0.0518
     10 C           3.9885   -0.6903    0.7123 C.3     1  UNL1       -0.0518
     11 C           3.8318    1.2233   -0.8873 C.3     1  UNL1       -0.0518
     12 N          -1.9755    1.0678   -1.0458 N.ar    1  UNL1       -0.2307
     13 C          -2.9120    0.8212   -0.0761 C.ar    1  UNL1        0.0894
     14 C          -3.9111    1.6655    0.4309 C.ar    1  UNL1       -0.0342
     15 C          -4.7516    1.1856    1.4420 C.ar    1  UNL1       -0.0596
     16 C          -4.5985   -0.1089    1.9399 C.ar    1  UNL1       -0.0597
     17 C          -3.6072   -0.9652    1.4456 C.ar    1  UNL1       -0.0361
     18 C          -2.7798   -0.4677    0.4301 C.ar    1  UNL1        0.0686
     19 H          -0.3642   -2.2608    0.6275 H       1  UNL1        0.0456
     20 H          -1.9648   -2.9890    0.2987 H       1  UNL1        0.0456
     21 H          -0.8423   -2.7293   -1.0437 H       1  UNL1        0.0456
     22 H          -0.2700    0.3676   -2.9884 H       1  UNL1        0.0542
     23 H           0.0640   -1.2542   -2.3697 H       1  UNL1        0.0542
     24 H           1.0078    1.3305   -1.2194 H       1  UNL1        0.1491
     25 H           1.7251    0.5322    1.7943 H       1  UNL1        0.0239
     26 H           3.1148    1.6329    1.7979 H       1  UNL1        0.0239
     27 H           1.7340    1.9505    0.7455 H       1  UNL1        0.0239
     28 H           3.4563   -1.3568    1.4011 H       1  UNL1        0.0239
     29 H           4.7727   -0.1794    1.2823 H       1  UNL1        0.0239
     30 H           4.4783   -1.3197   -0.0398 H       1  UNL1        0.0239
     31 H           3.2099    2.0121   -1.3245 H       1  UNL1        0.0239
     32 H           4.2575    0.6476   -1.7172 H       1  UNL1        0.0239
     33 H           4.6567    1.7131   -0.3578 H       1  UNL1        0.0239
     34 H          -4.0207    2.6708    0.0404 H       1  UNL1        0.0639
     35 H          -5.5294    1.8311    1.8426 H       1  UNL1        0.0618
     36 H          -5.2618   -0.4603    2.7278 H       1  UNL1        0.0618
     37 H          -3.4944   -1.9689    1.8405 H       1  UNL1        0.0639
@<TRIPOS>BOND
     1     1     2    1
     2     2     3   ar
     3     3     4    1
     4     4     5    1
     5     5     6   am
     6     6     7    2
     7     6     8    1
     8     8     9    1
     9     8    10    1
    10     8    11    1
    11     3    12   ar
    12    12    13   ar
    13    13    14   ar
    14    14    15   ar
    15    15    16   ar
    16    16    17   ar
    17    17    18   ar
    18    18     2   ar
    19    18    13   ar
    20     1    19    1
    21     1    20    1
    22     1    21    1
    23     4    22    1
    24     4    23    1
    25     5    24    1
    26     9    25    1
    27     9    26    1
    28     9    27    1
    29    10    28    1
    30    10    29    1
    31    10    30    1
    32    11    31    1
    33    11    32    1
    34    11    33    1
    35    14    34    1
    36    15    35    1
    37    16    36    1
    38    17    37    1
