@<TRIPOS>MOLECULE
*****
 28 30 0 0 0
SMALL
GASTEIGER

@<TRIPOS>ATOM
      1 C          -0.8914    1.9134    1.3331 C.3     1  UNL1        0.0152
      2 N          -1.1714    0.7643    0.5082 N.ar    1  UNL1       -0.3113
      3 C          -0.2043   -0.0749   -0.0095 C.ar    1  UNL1        0.2314
      4 N           1.1053    0.1606    0.2501 N.2     1  UNL1       -0.2194
      5 C           1.9238   -0.6885   -0.2852 C.2     1  UNL1        0.0451
      6 C           3.3474   -0.5475   -0.0836 C.ar    1  UNL1        0.0303
      7 C           4.0338    0.4103    0.6366 C.ar    1  UNL1       -0.0461
      8 C           5.4443    0.2090    0.5977 C.ar    1  UNL1       -0.0541
      9 C           5.7852   -0.8954   -0.1510 C.ar    1  UNL1       -0.0237
     10 S           4.4103   -1.6799   -0.7997 S.2     1  UNL1       -0.0957
     11 N          -0.7696   -1.0308   -0.7196 N.ar    1  UNL1       -0.2106
     12 C          -2.1208   -0.8047   -0.6590 C.ar    1  UNL1        0.0912
     13 C          -3.1706   -1.5299   -1.2426 C.ar    1  UNL1       -0.0342
     14 C          -4.4858   -1.0982   -1.0355 C.ar    1  UNL1       -0.0596
     15 C          -4.7504    0.0332   -0.2624 C.ar    1  UNL1       -0.0597
     16 C          -3.7157    0.7690    0.3276 C.ar    1  UNL1       -0.0360
     17 C          -2.4073    0.3198    0.1077 C.ar    1  UNL1        0.0700
     18 H          -1.8202    2.4127    1.6156 H       1  UNL1        0.0457
     19 H          -0.2655    2.6059    0.7640 H       1  UNL1        0.0457
     20 H          -0.3717    1.5766    2.2340 H       1  UNL1        0.0457
     21 H           1.5825   -1.5397   -0.9060 H       1  UNL1        0.0842
     22 H           3.5429    1.2180    1.1667 H       1  UNL1        0.0629
     23 H           6.1704    0.8418    1.0932 H       1  UNL1        0.0623
     24 H           6.7757   -1.2816   -0.3498 H       1  UNL1        0.0693
     25 H          -2.9564   -2.4078   -1.8419 H       1  UNL1        0.0639
     26 H          -5.3075   -1.6522   -1.4828 H       1  UNL1        0.0618
     27 H          -5.7810    0.3501   -0.1150 H       1  UNL1        0.0618
     28 H          -3.9321    1.6467    0.9265 H       1  UNL1        0.0639
@<TRIPOS>BOND
     1     1     2    1
     2     2     3   ar
     3     3     4    1
     4     4     5    2
     5     5     6    1
     6     6     7   ar
     7     7     8   ar
     8     8     9   ar
     9     9    10   ar
    10     3    11   ar
    11    11    12   ar
    12    12    13   ar
    13    13    14   ar
    14    14    15   ar
    15    15    16   ar
    16    16    17   ar
    17    17     2   ar
    18    10     6   ar
    19    17    12   ar
    20     1    18    1
    21     1    19    1
    22     1    20    1
    23     5    21    1
    24     7    22    1
    25     8    23    1
    26     9    24    1
    27    13    25    1
    28    14    26    1
    29    15    27    1
    30    16    28    1
