@<TRIPOS>MOLECULE
*****
 37 40 0 0 0
SMALL
GASTEIGER

@<TRIPOS>ATOM
      1 C           1.5531   -0.0290    1.8367 C.3     1  UNL1        0.0150
      2 N           2.1176    0.2266    0.5353 N.ar    1  UNL1       -0.3149
      3 C           1.4260    0.5785   -0.5996 C.ar    1  UNL1        0.1966
      4 N           0.0757    0.6614   -0.6411 N.pl3   1  UNL1       -0.3106
      5 C          -0.6369   -0.6140   -0.7618 C.3     1  UNL1        0.0390
      6 C          -2.1183   -0.4746   -0.9432 C.ar    1  UNL1       -0.0053
      7 C          -2.8024   -0.4694   -2.1452 C.ar    1  UNL1        0.0074
      8 N          -4.1371   -0.3230   -1.8810 N.ar    1  UNL1       -0.3603
      9 C          -4.3464   -0.2274   -0.5254 C.ar    1  UNL1        0.0468
     10 C          -5.5372   -0.0690    0.1938 C.ar    1  UNL1       -0.0378
     11 C          -5.4478    0.0095    1.5865 C.ar    1  UNL1       -0.0598
     12 C          -4.2158   -0.0650    2.2312 C.ar    1  UNL1       -0.0611
     13 C          -3.0351   -0.2241    1.4965 C.ar    1  UNL1       -0.0523
     14 C          -3.0969   -0.3111    0.0902 C.ar    1  UNL1        0.0043
     15 N           2.2383    0.8580   -1.5884 N.ar    1  UNL1       -0.2144
     16 C           3.5002    0.6222   -1.1032 C.ar    1  UNL1        0.0909
     17 C           4.7395    0.7379   -1.7505 C.ar    1  UNL1       -0.0342
     18 C           5.9050    0.4344   -1.0367 C.ar    1  UNL1       -0.0596
     19 C           5.8387    0.0251    0.2963 C.ar    1  UNL1       -0.0597
     20 C           4.6121   -0.0934    0.9606 C.ar    1  UNL1       -0.0360
     21 C           3.4589    0.2140    0.2276 C.ar    1  UNL1        0.0698
     22 H           0.6186    0.5254    1.9523 H       1  UNL1        0.0457
     23 H           2.2531    0.3023    2.6079 H       1  UNL1        0.0457
     24 H           1.3734   -1.1031    1.9259 H       1  UNL1        0.0457
     25 H          -0.2092    1.2297   -1.4387 H       1  UNL1        0.1492
     26 H          -0.2354   -1.1758   -1.6169 H       1  UNL1        0.0512
     27 H          -0.4522   -1.2308    0.1266 H       1  UNL1        0.0512
     28 H          -2.4492   -0.5576   -3.1644 H       1  UNL1        0.0810
     29 H          -4.8691   -0.2847   -2.5768 H       1  UNL1        0.1653
     30 H          -6.4983   -0.0051   -0.3056 H       1  UNL1        0.0638
     31 H          -6.3545    0.1352    2.1739 H       1  UNL1        0.0618
     32 H          -4.1682    0.0047    3.3150 H       1  UNL1        0.0618
     33 H          -2.0796   -0.2720    2.0092 H       1  UNL1        0.0624
     34 H           4.7820    1.0572   -2.7857 H       1  UNL1        0.0639
     35 H           6.8708    0.5204   -1.5288 H       1  UNL1        0.0618
     36 H           6.7585   -0.2042    0.8307 H       1  UNL1        0.0618
     37 H           4.5680   -0.4093    1.9969 H       1  UNL1        0.0639
@<TRIPOS>BOND
     1     1     2    1
     2     2     3   ar
     3     3     4    1
     4     4     5    1
     5     5     6    1
     6     6     7   ar
     7     7     8   ar
     8     8     9   ar
     9     9    10   ar
    10    10    11   ar
    11    11    12   ar
    12    12    13   ar
    13    13    14   ar
    14     3    15   ar
    15    15    16   ar
    16    16    17   ar
    17    17    18   ar
    18    18    19   ar
    19    19    20   ar
    20    20    21   ar
    21    21     2   ar
    22    14     6   ar
    23    21    16   ar
    24    14     9   ar
    25     1    22    1
    26     1    23    1
    27     1    24    1
    28     4    25    1
    29     5    26    1
    30     5    27    1
    31     7    28    1
    32     8    29    1
    33    10    30    1
    34    11    31    1
    35    12    32    1
    36    13    33    1
    37    17    34    1
    38    18    35    1
    39    19    36    1
    40    20    37    1
