@<TRIPOS>MOLECULE
*****
 43 46 0 0 0
SMALL
GASTEIGER

@<TRIPOS>ATOM
      1 C          -3.7261    1.4887   -0.6276 C.3     1  UNL1        0.0157
      2 N          -3.2577    0.1524   -0.8864 N.ar    1  UNL1       -0.3048
      3 C          -2.3993   -0.2545   -1.8684 C.ar    1  UNL1        0.1921
      4 S          -1.7671    0.7736   -3.1052 S.3     1  UNL1       -0.0767
      5 C           0.0088    0.5027   -2.8100 C.3     1  UNL1        0.0778
      6 C           0.4675    1.0776   -1.4695 C.2     1  UNL1        0.2261
      7 O          -0.2278    1.8612   -0.8157 O.2     1  UNL1       -0.2747
      8 N           1.7251    0.6833   -1.0129 N.am    1  UNL1       -0.2962
      9 C           2.7582    0.0776   -1.8524 C.3     1  UNL1        0.0190
     10 C           3.5272   -0.9982   -1.0895 C.3     1  UNL1       -0.0115
     11 C           4.0426   -0.4739    0.2244 C.ar    1  UNL1       -0.0412
     12 C           5.1422   -1.0844    0.8427 C.ar    1  UNL1       -0.0582
     13 C           5.6073   -0.6195    2.0721 C.ar    1  UNL1       -0.0615
     14 C           4.9729    0.4507    2.6971 C.ar    1  UNL1       -0.0614
     15 C           3.8681    1.0541    2.0960 C.ar    1  UNL1       -0.0568
     16 C           3.3870    0.5955    0.8598 C.ar    1  UNL1       -0.0269
     17 C           2.1857    1.2747    0.2417 C.3     1  UNL1        0.0400
     18 N          -2.1040   -1.5227   -1.7141 N.ar    1  UNL1       -0.1221
     19 N          -2.8018   -1.9761   -0.6199 N.ar    1  UNL1       -0.1278
     20 C          -3.5151   -0.9746   -0.1386 C.ar    1  UNL1        0.1713
     21 C          -4.4026   -1.0785    0.9827 C.ar    1  UNL1        0.0564
     22 C          -5.6696   -0.5427    1.1222 C.ar    1  UNL1       -0.0439
     23 C          -6.2591   -0.8521    2.3841 C.ar    1  UNL1       -0.0540
     24 C          -5.4283   -1.6241    3.1636 C.ar    1  UNL1       -0.0236
     25 S          -3.9542   -1.9769    2.3736 S.2     1  UNL1       -0.0935
     26 H          -3.0061    2.2243   -0.9911 H       1  UNL1        0.0457
     27 H          -4.6848    1.6196   -1.1352 H       1  UNL1        0.0457
     28 H          -3.8405    1.6354    0.4493 H       1  UNL1        0.0457
     29 H           0.5649    1.0036   -3.6081 H       1  UNL1        0.0475
     30 H           0.2069   -0.5722   -2.8510 H       1  UNL1        0.0475
     31 H           2.3404   -0.3564   -2.7628 H       1  UNL1        0.0468
     32 H           3.4294    0.8870   -2.1671 H       1  UNL1        0.0468
     33 H           4.3584   -1.3507   -1.7110 H       1  UNL1        0.0328
     34 H           2.8695   -1.8517   -0.8847 H       1  UNL1        0.0328
     35 H           5.6407   -1.9276    0.3702 H       1  UNL1        0.0620
     36 H           6.4622   -1.0959    2.5449 H       1  UNL1        0.0618
     37 H           5.3339    0.8114    3.6567 H       1  UNL1        0.0618
     38 H           3.3772    1.8838    2.6007 H       1  UNL1        0.0621
     39 H           1.3576    1.2632    0.9607 H       1  UNL1        0.0514
     40 H           2.4408    2.3202    0.0277 H       1  UNL1        0.0514
     41 H          -6.1680    0.0346    0.3533 H       1  UNL1        0.0630
     42 H          -7.2456   -0.5335    2.6986 H       1  UNL1        0.0623
     43 H          -5.6168   -2.0089    4.1565 H       1  UNL1        0.0693
@<TRIPOS>BOND
     1     1     2    1
     2     2     3   ar
     3     3     4    1
     4     4     5    1
     5     5     6    1
     6     6     7    2
     7     6     8   am
     8     8     9    1
     9     9    10    1
    10    10    11    1
    11    11    12   ar
    12    12    13   ar
    13    13    14   ar
    14    14    15   ar
    15    15    16   ar
    16    16    17    1
    17     3    18   ar
    18    18    19   ar
    19    19    20   ar
    20    20    21    1
    21    21    22   ar
    22    22    23   ar
    23    23    24   ar
    24    24    25   ar
    25    20     2   ar
    26    25    21   ar
    27    17     8    1
    28    16    11   ar
    29     1    26    1
    30     1    27    1
    31     1    28    1
    32     5    29    1
    33     5    30    1
    34     9    31    1
    35     9    32    1
    36    10    33    1
    37    10    34    1
    38    12    35    1
    39    13    36    1
    40    14    37    1
    41    15    38    1
    42    17    39    1
    43    17    40    1
    44    22    41    1
    45    23    42    1
    46    24    43    1
