@<TRIPOS>MOLECULE
*****
 40 42 0 0 0
SMALL
GASTEIGER

@<TRIPOS>ATOM
      1 C          -2.4885   -1.6508   -0.6665 C.3     1  UNL1        0.0157
      2 N          -2.0191   -0.5554    0.1429 N.ar    1  UNL1       -0.3052
      3 C          -0.7302   -0.3011    0.5220 C.ar    1  UNL1        0.1921
      4 S           0.6385   -1.1851   -0.0501 S.3     1  UNL1       -0.0767
      5 C           1.8915   -0.6396    1.1490 C.3     1  UNL1        0.0778
      6 C           3.2435   -1.2219    0.7708 C.2     1  UNL1        0.2260
      7 O           3.5943   -2.3113    1.2341 O.2     1  UNL1       -0.2747
      8 N           4.0707   -0.4897   -0.0799 N.am    1  UNL1       -0.2964
      9 C           3.5866    0.5642   -0.9819 C.3     1  UNL1        0.0382
     10 C           4.7145    1.5114   -1.4043 C.3     1  UNL1        0.0635
     11 O           5.8238    0.7865   -1.9512 O.3     1  UNL1       -0.3767
     12 C           6.3582   -0.1150   -0.9711 C.3     1  UNL1        0.0635
     13 C           5.3081   -1.1360   -0.5284 C.3     1  UNL1        0.0382
     14 N          -0.7010    0.7127    1.3514 N.ar    1  UNL1       -0.1222
     15 N          -1.9916    1.1518    1.5119 N.ar    1  UNL1       -0.1283
     16 C          -2.7862    0.4168    0.7521 C.ar    1  UNL1        0.1646
     17 C          -4.2307    0.5948    0.6236 C.ar    1  UNL1        0.0193
     18 C          -5.0101    0.7525    1.7773 C.ar    1  UNL1       -0.0510
     19 C          -6.3926    0.9265    1.6834 C.ar    1  UNL1       -0.0611
     20 C          -7.0074    0.9566    0.4334 C.ar    1  UNL1       -0.0617
     21 C          -6.2409    0.8221   -0.7228 C.ar    1  UNL1       -0.0611
     22 C          -4.8577    0.6473   -0.6292 C.ar    1  UNL1       -0.0510
     23 H          -3.5245   -1.8859   -0.4125 H       1  UNL1        0.0457
     24 H          -1.8862   -2.5411   -0.4707 H       1  UNL1        0.0457
     25 H          -2.4100   -1.3602   -1.7169 H       1  UNL1        0.0457
     26 H           1.6282   -1.0177    2.1434 H       1  UNL1        0.0475
     27 H           1.9477    0.4486    1.2304 H       1  UNL1        0.0475
     28 H           3.1823    0.0533   -1.8640 H       1  UNL1        0.0487
     29 H           2.7802    1.1423   -0.5284 H       1  UNL1        0.0487
     30 H           4.3537    2.2017   -2.1731 H       1  UNL1        0.0575
     31 H           5.0633    2.1100   -0.5543 H       1  UNL1        0.0575
     32 H           7.2140   -0.6289   -1.4198 H       1  UNL1        0.0575
     33 H           6.7268    0.4655   -0.1169 H       1  UNL1        0.0575
     34 H           5.0341   -1.7804   -1.3727 H       1  UNL1        0.0487
     35 H           5.7198   -1.7714    0.2626 H       1  UNL1        0.0487
     36 H          -4.5385    0.7426    2.7588 H       1  UNL1        0.0625
     37 H          -6.9861    1.0459    2.5863 H       1  UNL1        0.0618
     38 H          -8.0829    1.0981    0.3605 H       1  UNL1        0.0618
     39 H          -6.7193    0.8652   -1.6981 H       1  UNL1        0.0618
     40 H          -4.2760    0.5751   -1.5447 H       1  UNL1        0.0625
@<TRIPOS>BOND
     1     1     2    1
     2     2     3   ar
     3     3     4    1
     4     4     5    1
     5     5     6    1
     6     6     7    2
     7     6     8   am
     8     8     9    1
     9     9    10    1
    10    10    11    1
    11    11    12    1
    12    12    13    1
    13     3    14   ar
    14    14    15   ar
    15    15    16   ar
    16    16    17    1
    17    17    18   ar
    18    18    19   ar
    19    19    20   ar
    20    20    21   ar
    21    21    22   ar
    22    16     2   ar
    23    22    17   ar
    24    13     8    1
    25     1    23    1
    26     1    24    1
    27     1    25    1
    28     5    26    1
    29     5    27    1
    30     9    28    1
    31     9    29    1
    32    10    30    1
    33    10    31    1
    34    12    32    1
    35    12    33    1
    36    13    34    1
    37    13    35    1
    38    18    36    1
    39    19    37    1
    40    20    38    1
    41    21    39    1
    42    22    40    1
