@<TRIPOS>MOLECULE
*****
 38 40 0 0 0
SMALL
GASTEIGER

@<TRIPOS>ATOM
      1 C          -2.5854    0.7081   -1.7975 C.3     1  UNL1        0.0157
      2 N          -2.4267    0.4541   -0.3880 N.ar    1  UNL1       -0.3052
      3 C          -1.2621    0.4804    0.3286 C.ar    1  UNL1        0.1921
      4 S           0.3038    0.6732   -0.3735 S.3     1  UNL1       -0.0767
      5 C           1.2866    0.9750    1.1256 C.3     1  UNL1        0.0779
      6 C           2.7492    1.1167    0.7403 C.2     1  UNL1        0.2276
      7 O           3.2562    2.2213    0.5654 O.2     1  UNL1       -0.2746
      8 N           3.3932   -0.1028    0.6125 N.am    1  UNL1       -0.2825
      9 C           4.7443   -0.3355    0.2778 C.ar    1  UNL1        0.0692
     10 C           5.6888    0.6691    0.0584 C.ar    1  UNL1       -0.0350
     11 C           7.0074    0.3311   -0.2677 C.ar    1  UNL1       -0.0245
     12 C           7.3775   -1.0062   -0.3725 C.ar    1  UNL1        0.1262
     13 F           8.6415   -1.3179   -0.6852 F       1  UNL1       -0.2054
     14 C           6.4573   -2.0200   -0.1577 C.ar    1  UNL1        0.0106
     15 C           5.1509   -1.6746    0.1654 C.ar    1  UNL1        0.1472
     16 F           4.2546   -2.6530    0.3740 F       1  UNL1       -0.2035
     17 N          -1.5195    0.3207    1.6030 N.ar    1  UNL1       -0.1222
     18 N          -2.8763    0.1656    1.7339 N.ar    1  UNL1       -0.1283
     19 C          -3.4250    0.2020    0.5318 C.ar    1  UNL1        0.1661
     20 C          -4.8469    0.0378    0.2578 C.ar    1  UNL1        0.0373
     21 C          -5.3313   -0.7950   -0.7550 C.ar    1  UNL1       -0.0482
     22 C          -6.7057   -0.9121   -0.9589 C.ar    1  UNL1       -0.0429
     23 C          -7.5573   -0.1947   -0.1352 C.ar    1  UNL1        0.0276
     24 N          -7.1311    0.6079    0.8618 N.ar    1  UNL1       -0.2626
     25 C          -5.7899    0.6936    1.0443 C.ar    1  UNL1        0.0382
     26 H          -1.8616    1.4589   -2.1232 H       1  UNL1        0.0457
     27 H          -3.5854    1.1007   -1.9951 H       1  UNL1        0.0457
     28 H          -2.4306   -0.2304   -2.3352 H       1  UNL1        0.0457
     29 H           0.9615    1.8981    1.6166 H       1  UNL1        0.0475
     30 H           1.1748    0.1508    1.8382 H       1  UNL1        0.0475
     31 H           2.8324   -0.9423    0.7326 H       1  UNL1        0.1549
     32 H           5.4354    1.7221    0.1340 H       1  UNL1        0.0638
     33 H           7.7466    1.1083   -0.4397 H       1  UNL1        0.0647
     34 H           6.7510   -3.0593   -0.2400 H       1  UNL1        0.0675
     35 H          -4.6540   -1.3752   -1.3755 H       1  UNL1        0.0626
     36 H          -7.1041   -1.5561   -1.7352 H       1  UNL1        0.0633
     37 H          -8.6357   -0.2538   -0.2537 H       1  UNL1        0.0829
     38 H          -5.4843    1.3336    1.8696 H       1  UNL1        0.0837
@<TRIPOS>BOND
     1     1     2    1
     2     2     3   ar
     3     3     4    1
     4     4     5    1
     5     5     6    1
     6     6     7    2
     7     6     8   am
     8     8     9    1
     9     9    10   ar
    10    10    11   ar
    11    11    12   ar
    12    12    13    1
    13    12    14   ar
    14    14    15   ar
    15    15    16    1
    16     3    17   ar
    17    17    18   ar
    18    18    19   ar
    19    19    20    1
    20    20    21   ar
    21    21    22   ar
    22    22    23   ar
    23    23    24   ar
    24    24    25   ar
    25    19     2   ar
    26    25    20   ar
    27    15     9   ar
    28     1    26    1
    29     1    27    1
    30     1    28    1
    31     5    29    1
    32     5    30    1
    33     8    31    1
    34    10    32    1
    35    11    33    1
    36    14    34    1
    37    21    35    1
    38    22    36    1
    39    23    37    1
    40    25    38    1
