@<TRIPOS>MOLECULE
*****
 34 36 0 0 0
SMALL
GASTEIGER

@<TRIPOS>ATOM
      1 C          -1.3247    0.8398    1.8963 C.3     1  UNL1        0.0158
      2 N          -0.8585    1.1442    0.5681 N.ar    1  UNL1       -0.3040
      3 C           0.2424    1.8743    0.2120 C.ar    1  UNL1        0.1920
      4 S           1.3942    2.5559    1.3063 S.3     1  UNL1       -0.0812
      5 C           2.3324    1.0802    1.7969 C.3     1  UNL1        0.0290
      6 C           2.9764    0.3468    0.6540 C.ar    1  UNL1       -0.0020
      7 C           4.0980    0.8685   -0.0069 C.ar    1  UNL1       -0.0550
      8 C           4.6746    0.1760   -1.0750 C.ar    1  UNL1       -0.0613
      9 C           4.1381   -1.0416   -1.4947 C.ar    1  UNL1       -0.0590
     10 C           3.0231   -1.5685   -0.8463 C.ar    1  UNL1       -0.0262
     11 C           2.4539   -0.8744    0.2169 C.ar    1  UNL1        0.1274
     12 F           1.3821   -1.3982    0.8308 F       1  UNL1       -0.2052
     13 N           0.2985    1.9938   -1.0913 N.ar    1  UNL1       -0.1221
     14 N          -0.7587    1.2960   -1.6145 N.ar    1  UNL1       -0.1267
     15 C          -1.4557    0.7627   -0.6211 C.ar    1  UNL1        0.1830
     16 C          -2.6455   -0.0775   -0.7912 C.ar    1  UNL1        0.1080
     17 C          -3.1645   -0.3196   -2.0612 C.ar    1  UNL1       -0.0326
     18 C          -4.2910   -1.1282   -2.1889 C.ar    1  UNL1       -0.0582
     19 C          -4.8668   -1.6738   -1.0493 C.ar    1  UNL1       -0.0436
     20 C          -4.2889   -1.3860    0.1753 C.ar    1  UNL1        0.0284
     21 N          -3.1968   -0.6035    0.3305 N.ar    1  UNL1       -0.2518
     22 H          -1.2179   -0.2344    2.0667 H       1  UNL1        0.0457
     23 H          -0.7442    1.3775    2.6475 H       1  UNL1        0.0457
     24 H          -2.3663    1.1577    1.9889 H       1  UNL1        0.0457
     25 H           1.6764    0.4150    2.3694 H       1  UNL1        0.0430
     26 H           3.1147    1.3970    2.4967 H       1  UNL1        0.0430
     27 H           4.5205    1.8241    0.2968 H       1  UNL1        0.0621
     28 H           5.5375    0.5938   -1.5882 H       1  UNL1        0.0618
     29 H           4.5830   -1.5730   -2.3318 H       1  UNL1        0.0618
     30 H           2.5890   -2.5099   -1.1667 H       1  UNL1        0.0646
     31 H          -2.6980    0.1140   -2.9415 H       1  UNL1        0.0640
     32 H          -4.7109   -1.3291   -3.1704 H       1  UNL1        0.0619
     33 H          -5.7435   -2.3086   -1.1140 H       1  UNL1        0.0633
     34 H          -4.7028   -1.7911    1.0946 H       1  UNL1        0.0830
@<TRIPOS>BOND
     1     1     2    1
     2     2     3   ar
     3     3     4    1
     4     4     5    1
     5     5     6    1
     6     6     7   ar
     7     7     8   ar
     8     8     9   ar
     9     9    10   ar
    10    10    11   ar
    11    11    12    1
    12     3    13   ar
    13    13    14   ar
    14    14    15   ar
    15    15    16    1
    16    16    17   ar
    17    17    18   ar
    18    18    19   ar
    19    19    20   ar
    20    20    21   ar
    21    15     2   ar
    22    21    16   ar
    23    11     6   ar
    24     1    22    1
    25     1    23    1
    26     1    24    1
    27     5    25    1
    28     5    26    1
    29     7    27    1
    30     8    28    1
    31     9    29    1
    32    10    30    1
    33    17    31    1
    34    18    32    1
    35    19    33    1
    36    20    34    1
