@<TRIPOS>MOLECULE
*****
 25 27 0 0 0
SMALL
GASTEIGER

@<TRIPOS>ATOM
      1 C          -0.6938    2.6092    0.1608 C.3     1  UNL1        0.0124
      2 N          -0.3225    1.2133    0.0718 N.ar    1  UNL1       -0.3429
      3 C           0.9775    0.7464    0.0888 C.ar    1  UNL1        0.0498
      4 C           0.9109   -0.6430   -0.0326 C.ar    1  UNL1        0.0076
      5 C          -0.4705   -1.0057   -0.1061 C.ar    1  UNL1        0.0076
      6 C          -1.2212    0.1690   -0.0283 C.ar    1  UNL1        0.0498
      7 C          -2.6264    0.1537   -0.0565 C.ar    1  UNL1       -0.0376
      8 C          -3.2720   -1.0809   -0.1740 C.ar    1  UNL1       -0.0598
      9 C          -2.5447   -2.2631   -0.2590 C.ar    1  UNL1       -0.0611
     10 C          -1.1471   -2.2389   -0.2253 C.ar    1  UNL1       -0.0520
     11 C           2.1129   -1.3828   -0.0517 C.ar    1  UNL1       -0.0520
     12 C           3.3385   -0.7180    0.0542 C.ar    1  UNL1       -0.0611
     13 C           3.3806    0.6662    0.1802 C.ar    1  UNL1       -0.0598
     14 C           2.2048    1.4225    0.2007 C.ar    1  UNL1       -0.0376
     15 H          -0.8160    2.8604    1.2171 H       1  UNL1        0.0456
     16 H           0.0854    3.2264   -0.2924 H       1  UNL1        0.0456
     17 H          -1.6260    2.7769   -0.3835 H       1  UNL1        0.0456
     18 H          -3.2075    1.0675    0.0110 H       1  UNL1        0.0638
     19 H          -4.3587   -1.1157   -0.1988 H       1  UNL1        0.0618
     20 H          -3.0636   -3.2138   -0.3498 H       1  UNL1        0.0618
     21 H          -0.5857   -3.1663   -0.2876 H       1  UNL1        0.0624
     22 H           2.0875   -2.4643   -0.1453 H       1  UNL1        0.0624
     23 H           4.2628   -1.2897    0.0402 H       1  UNL1        0.0618
     24 H           4.3412    1.1691    0.2643 H       1  UNL1        0.0618
     25 H           2.2535    2.5017    0.3017 H       1  UNL1        0.0638
@<TRIPOS>BOND
     1     1     2    1
     2     2     3   ar
     3     3     4   ar
     4     4     5   ar
     5     5     6   ar
     6     6     7   ar
     7     7     8   ar
     8     8     9   ar
     9     9    10   ar
    10     4    11   ar
    11    11    12   ar
    12    12    13   ar
    13    13    14   ar
    14     6     2   ar
    15    14     3   ar
    16    10     5   ar
    17     1    15    1
    18     1    16    1
    19     1    17    1
    20     7    18    1
    21     8    19    1
    22     9    20    1
    23    10    21    1
    24    11    22    1
    25    12    23    1
    26    13    24    1
    27    14    25    1
