@<TRIPOS>MOLECULE
*****
 35 40 0 0 0
SMALL
GASTEIGER

@<TRIPOS>ATOM
      1 SI          2.1004    1.5813   -0.5999 Si      1  UNL1        0.0000
      2 C           3.4603    0.2863   -0.2194 C.2     1  UNL1        0.0000
      3 C           2.9210   -0.9074    0.1225 C.2     1  UNL1        0.0000
      4 C           1.4468   -0.9347    0.1229 C.ar    1  UNL1        0.0000
      5 C           0.6610   -2.0375    0.4372 C.ar    1  UNL1        0.0000
      6 C          -0.7414   -1.9352    0.4004 C.ar    1  UNL1        0.0000
      7 C          -1.3427   -0.7082    0.0431 C.ar    1  UNL1        0.0000
      8 C          -0.5207    0.3855   -0.2682 C.ar    1  UNL1        0.0000
      9 O          -1.2596    1.4940   -0.5920 O.2     1  UNL1        0.0000
     10 C          -2.5776    1.1382   -0.4963 C.ar    1  UNL1        0.0000
     11 C          -3.6955    1.9695   -0.7421 C.ar    1  UNL1        0.0000
     12 C          -5.0050    1.4519   -0.5997 C.ar    1  UNL1        0.0000
     13 C          -5.0109    0.1141   -0.2136 C.ar    1  UNL1        0.0000
     14 C          -6.1187   -0.6681    0.0062 C.ar    1  UNL1        0.0000
     15 O          -5.7360   -1.9375    0.3746 O.2     1  UNL1        0.0000
     16 C          -4.3611   -1.9712    0.3917 C.ar    1  UNL1        0.0000
     17 C          -3.9221   -0.7363    0.0376 C.ar    1  UNL1        0.0000
     18 C          -2.6264   -0.1879   -0.1138 C.ar    1  UNL1        0.0000
     19 C           0.8584    0.2933   -0.2344 C.ar    1  UNL1        0.0000
     20 C           4.8633    0.5324   -0.2835 C.ar    1  UNL1        0.0000
     21 C           5.9292   -0.3274   -0.0288 C.ar    1  UNL1        0.0000
     22 N           7.2061    0.1819   -0.1700 N.ar    1  UNL1        0.0000
     23 C           7.1236    1.4382   -0.5347 C.ar    1  UNL1        0.0000
     24 S           5.5468    2.0655   -0.7246 S.2     1  UNL1        0.0000
     25 H           2.1246    2.6934    0.3865 H       1  UNL1        0.0000
     26 H           2.1367    1.9971   -2.0267 H       1  UNL1        0.0000
     27 H           3.4738   -1.8003    0.3828 H       1  UNL1        0.0000
     28 H           1.1202   -2.9836    0.7126 H       1  UNL1        0.0000
     29 H          -1.3501   -2.8000    0.6468 H       1  UNL1        0.0000
     30 H          -3.5422    3.0027   -1.0395 H       1  UNL1        0.0000
     31 H          -5.8895    2.0497   -0.7769 H       1  UNL1        0.0000
     32 H          -7.1865   -0.5081   -0.0457 H       1  UNL1        0.0000
     33 H          -3.9158   -2.9155    0.6666 H       1  UNL1        0.0000
     34 H           5.8283   -1.3635    0.2711 H       1  UNL1        0.0000
     35 H           8.0011    2.0475   -0.7069 H       1  UNL1        0.0000
@<TRIPOS>BOND
     1     1     2    1
     2     2     3    2
     3     3     4    1
     4     4     5   ar
     5     5     6   ar
     6     6     7   ar
     7     7     8   ar
     8     8     9   ar
     9     9    10   ar
    10    10    11   ar
    11    11    12   ar
    12    12    13   ar
    13    13    14   ar
    14    14    15   ar
    15    15    16   ar
    16    16    17   ar
    17    17    18   ar
    18     8    19   ar
    19     2    20    1
    20    20    21   ar
    21    21    22   ar
    22    22    23   ar
    23    23    24   ar
    24    19     1    1
    25    24    20   ar
    26    19     4   ar
    27    18     7   ar
    28    18    10   ar
    29    17    13   ar
    30     1    25    1
    31     1    26    1
    32     3    27    1
    33     5    28    1
    34     6    29    1
    35    11    30    1
    36    12    31    1
    37    14    32    1
    38    16    33    1
    39    21    34    1
    40    23    35    1
