@<TRIPOS>MOLECULE
*****
 43 49 0 0 0
SMALL
GASTEIGER

@<TRIPOS>ATOM
      1 SI         -5.0250   -1.0684   -0.2421 Si      1  UNL1        0.0000
      2 C          -6.0347    0.4790   -0.5503 C.2     1  UNL1        0.0000
      3 C          -5.2731    1.5818   -0.6437 C.2     1  UNL1        0.0000
      4 C          -3.8501    1.2961   -0.4814 C.ar    1  UNL1        0.0000
      5 C          -3.4245   -0.0496   -0.2520 C.ar    1  UNL1        0.0000
      6 C          -2.0269   -0.4465   -0.0758 C.ar    1  UNL1        0.0000
      7 C          -1.4863   -1.7467    0.1567 C.ar    1  UNL1        0.0000
      8 C          -2.1652   -2.9449    0.2701 C.ar    1  UNL1        0.0000
      9 N          -1.2527   -3.9643    0.4942 N.ar    1  UNL1        0.0000
     10 C           0.0212   -3.4544    0.5303 C.ar    1  UNL1        0.0000
     11 C          -0.1393   -2.1156    0.3248 C.ar    1  UNL1        0.0000
     12 C           0.8731   -1.1201    0.2688 C.ar    1  UNL1        0.0000
     13 C           2.2499   -1.3667    0.4222 C.ar    1  UNL1        0.0000
     14 C           2.9734   -0.1922    0.3160 C.ar    1  UNL1        0.0000
     15 S           1.9128    1.1361    0.0345 S.2     1  UNL1        0.0000
     16 C           0.4627    0.1846    0.0467 C.ar    1  UNL1        0.0000
     17 C          -0.9249    0.5337   -0.1222 C.ar    1  UNL1        0.0000
     18 C          -1.4125    1.8492   -0.3527 C.ar    1  UNL1        0.0000
     19 C          -0.7186    3.0342   -0.4637 C.ar    1  UNL1        0.0000
     20 N          -1.6210    4.0526   -0.6869 N.ar    1  UNL1        0.0000
     21 C          -2.8974    3.5515   -0.7239 C.ar    1  UNL1        0.0000
     22 C          -2.7988    2.1972   -0.5210 C.ar    1  UNL1        0.0000
     23 C           4.4325    0.0202    0.4109 C.ar    1  UNL1        0.0000
     24 C           5.3190   -1.0315    0.6375 C.ar    1  UNL1        0.0000
     25 C           6.6856   -0.7648    0.7168 C.ar    1  UNL1        0.0000
     26 C           7.1346    0.5400    0.5688 C.ar    1  UNL1        0.0000
     27 C           6.1937    1.5283    0.3465 C.ar    1  UNL1        0.0000
     28 N           4.8655    1.2971    0.2655 N.ar    1  UNL1        0.0000
     29 H          -5.3252   -1.6684    1.0832 H       1  UNL1        0.0000
     30 H          -5.1156   -2.0218   -1.3775 H       1  UNL1        0.0000
     31 H          -7.1092    0.4356   -0.6356 H       1  UNL1        0.0000
     32 H          -5.6500    2.5791   -0.8190 H       1  UNL1        0.0000
     33 H          -3.2059   -3.2172    0.2200 H       1  UNL1        0.0000
     34 H          -1.4950   -4.9397    0.6131 H       1  UNL1        0.0000
     35 H           0.8799   -4.0895    0.6947 H       1  UNL1        0.0000
     36 H           2.6917   -2.3372    0.5992 H       1  UNL1        0.0000
     37 H           0.3286    3.2868   -0.4106 H       1  UNL1        0.0000
     38 H          -1.3726    5.0261   -0.8056 H       1  UNL1        0.0000
     39 H          -3.7418    4.2056   -0.8899 H       1  UNL1        0.0000
     40 H           4.9721   -2.0514    0.7535 H       1  UNL1        0.0000
     41 H           7.3914   -1.5716    0.8928 H       1  UNL1        0.0000
     42 H           8.1898    0.7816    0.6249 H       1  UNL1        0.0000
     43 H           6.4887    2.5664    0.2234 H       1  UNL1        0.0000
@<TRIPOS>BOND
     1     1     2    1
     2     2     3    2
     3     3     4    1
     4     4     5   ar
     5     5     6   ar
     6     6     7   ar
     7     7     8   ar
     8     8     9   ar
     9     9    10   ar
    10    10    11   ar
    11    11    12   ar
    12    12    13   ar
    13    13    14   ar
    14    14    15   ar
    15    15    16   ar
    16    16    17   ar
    17    17    18   ar
    18    18    19   ar
    19    19    20   ar
    20    20    21   ar
    21    21    22   ar
    22    14    23    1
    23    23    24   ar
    24    24    25   ar
    25    25    26   ar
    26    26    27   ar
    27    27    28   ar
    28     5     1    1
    29    17     6   ar
    30    22    18   ar
    31    28    23   ar
    32    22     4   ar
    33    11     7   ar
    34    16    12   ar
    35     1    29    1
    36     1    30    1
    37     2    31    1
    38     3    32    1
    39     8    33    1
    40     9    34    1
    41    10    35    1
    42    13    36    1
    43    19    37    1
    44    20    38    1
    45    21    39    1
    46    24    40    1
    47    25    41    1
    48    26    42    1
    49    27    43    1
