@<TRIPOS>MOLECULE
*****
 40 42 0 0 0
SMALL
GASTEIGER

@<TRIPOS>ATOM
      1 C           3.7756    2.2159    1.3139 C.3     1  UNL1        0.0178
      2 N           3.1129    1.0289    0.7866 N.ar    1  UNL1       -0.2845
      3 C           1.7762    1.0961    0.4331 C.ar    1  UNL1        0.1130
      4 C           1.1510    0.0012   -0.0325 C.ar    1  UNL1        0.0692
      5 C           1.8909   -1.2644   -0.1932 C.ar    1  UNL1        0.2625
      6 O           1.3448   -2.2330   -0.7196 O.2     1  UNL1       -0.2671
      7 N           3.1930   -1.2704    0.2574 N.ar    1  UNL1       -0.2636
      8 C           3.9550   -2.4983    0.1365 C.3     1  UNL1        0.0196
      9 C           3.8668   -0.1394    0.6928 C.ar    1  UNL1        0.3328
     10 O           5.0689   -0.1726    0.9685 O.2     1  UNL1       -0.2462
     11 C          -0.3024   -0.0083   -0.4435 C.3     1  UNL1        0.0339
     12 N          -1.0906    1.1330    0.0656 N.3     1  UNL1       -0.2801
     13 C          -2.3810    1.2933   -0.6287 C.3     1  UNL1        0.0269
     14 C          -3.3950    0.1396   -0.4965 C.3     1  UNL1        0.0715
     15 C          -3.6401   -0.3795    0.9108 C.3     1  UNL1       -0.0233
     16 C          -4.2085   -1.7480    0.6231 C.3     1  UNL1       -0.0271
     17 C          -3.3970   -2.1879   -0.5788 C.3     1  UNL1        0.0482
     18 O          -3.0225   -0.9994   -1.2947 O.3     1  UNL1       -0.3753
     19 C          -0.2841    2.3427   -0.0456 C.3     1  UNL1        0.0642
     20 N           1.0460    2.2708    0.5247 N.pl3   1  UNL1       -0.3171
     21 H           3.1960    2.6182    2.1514 H       1  UNL1        0.0458
     22 H           4.7841    2.0042    1.6796 H       1  UNL1        0.0458
     23 H           3.8520    2.9637    0.5180 H       1  UNL1        0.0458
     24 H           3.3033   -3.3757    0.0951 H       1  UNL1        0.0458
     25 H           4.6371   -2.6087    0.9853 H       1  UNL1        0.0458
     26 H           4.5452   -2.4485   -0.7842 H       1  UNL1        0.0458
     27 H          -0.3408   -0.0459   -1.5404 H       1  UNL1        0.0479
     28 H          -0.7567   -0.9251   -0.0549 H       1  UNL1        0.0479
     29 H          -2.2047    1.4799   -1.6965 H       1  UNL1        0.0452
     30 H          -2.8706    2.1872   -0.2205 H       1  UNL1        0.0452
     31 H          -4.3485    0.4911   -0.9135 H       1  UNL1        0.0609
     32 H          -4.3174    0.2580    1.4857 H       1  UNL1        0.0291
     33 H          -2.7083   -0.4875    1.4762 H       1  UNL1        0.0291
     34 H          -4.1333   -2.4415    1.4648 H       1  UNL1        0.0288
     35 H          -5.2660   -1.6601    0.3471 H       1  UNL1        0.0288
     36 H          -2.4777   -2.6973   -0.2717 H       1  UNL1        0.0560
     37 H          -3.9581   -2.8533   -1.2409 H       1  UNL1        0.0560
     38 H          -0.8056    3.1659    0.4570 H       1  UNL1        0.0632
     39 H          -0.1816    2.6385   -1.0991 H       1  UNL1        0.0632
     40 H           1.5919    3.1167    0.4273 H       1  UNL1        0.1487
@<TRIPOS>BOND
     1     1     2    1
     2     2     3   ar
     3     3     4   ar
     4     4     5   ar
     5     5     6    2
     6     5     7   ar
     7     7     8    1
     8     7     9   ar
     9     9    10    2
    10     4    11    1
    11    11    12    1
    12    12    13    1
    13    13    14    1
    14    14    15    1
    15    15    16    1
    16    16    17    1
    17    17    18    1
    18    12    19    1
    19    19    20    1
    20     9     2   ar
    21    18    14    1
    22    20     3    1
    23     1    21    1
    24     1    22    1
    25     1    23    1
    26     8    24    1
    27     8    25    1
    28     8    26    1
    29    11    27    1
    30    11    28    1
    31    13    29    1
    32    13    30    1
    33    14    31    1
    34    15    32    1
    35    15    33    1
    36    16    34    1
    37    16    35    1
    38    17    36    1
    39    17    37    1
    40    19    38    1
    41    19    39    1
    42    20    40    1
