@<TRIPOS>MOLECULE
*****
 46 48 0 0 0
SMALL
GASTEIGER

@<TRIPOS>ATOM
      1 C          -4.5300    1.8314    1.2290 C.3     1  UNL1        0.0178
      2 N          -3.8939    0.7221    0.5277 N.ar    1  UNL1       -0.2845
      3 C          -2.6213    0.8850    0.0095 C.ar    1  UNL1        0.1130
      4 C          -2.0178   -0.1393   -0.6188 C.ar    1  UNL1        0.0692
      5 C          -2.7177   -1.4265   -0.7832 C.ar    1  UNL1        0.2625
      6 O          -2.1996   -2.3271   -1.4412 O.2     1  UNL1       -0.2671
      7 N          -3.9514   -1.5302   -0.1782 N.ar    1  UNL1       -0.2636
      8 C          -4.6744   -2.7816   -0.3013 C.3     1  UNL1        0.0196
      9 C          -4.6065   -0.4721    0.4342 C.ar    1  UNL1        0.3328
     10 O          -5.7578   -0.5883    0.8616 O.2     1  UNL1       -0.2462
     11 C          -0.6350   -0.0315   -1.2180 C.3     1  UNL1        0.0339
     12 N           0.1837    1.1056   -0.7422 N.3     1  UNL1       -0.2813
     13 C           0.8315    0.8294    0.5567 C.3     1  UNL1        0.0134
     14 C           1.8783   -0.3227    0.5703 C.3     1  UNL1        0.0118
     15 N           2.7887   -0.3821   -0.5905 N.3     1  UNL1       -0.2987
     16 C           3.6233   -1.6010   -0.5506 C.3     1  UNL1        0.0115
     17 C           4.7810   -1.5567    0.4737 C.3     1  UNL1        0.0087
     18 N           5.6466   -0.3738    0.3200 N.3     1  UNL1       -0.3136
     19 C           4.8168    0.8440    0.3308 C.3     1  UNL1        0.0087
     20 C           3.6634    0.8019   -0.6979 C.3     1  UNL1        0.0115
     21 C          -0.6961    2.2654   -0.6338 C.3     1  UNL1        0.0641
     22 N          -1.9337    2.0883    0.1038 N.pl3   1  UNL1       -0.3171
     23 H          -4.7507    2.6266    0.5097 H       1  UNL1        0.0458
     24 H          -5.4667    1.5388    1.7112 H       1  UNL1        0.0458
     25 H          -3.8583    2.2071    2.0079 H       1  UNL1        0.0458
     26 H          -5.3989   -2.6824   -1.1161 H       1  UNL1        0.0458
     27 H          -4.0044   -3.6178   -0.5196 H       1  UNL1        0.0458
     28 H          -5.2160   -2.9992    0.6247 H       1  UNL1        0.0458
     29 H          -0.0868   -0.9710   -1.0942 H       1  UNL1        0.0479
     30 H          -0.7562    0.0848   -2.3040 H       1  UNL1        0.0479
     31 H           0.0890    0.6183    1.3373 H       1  UNL1        0.0440
     32 H           1.3569    1.7388    0.8770 H       1  UNL1        0.0440
     33 H           1.3167   -1.2648    0.6158 H       1  UNL1        0.0439
     34 H           2.4354   -0.2619    1.5131 H       1  UNL1        0.0439
     35 H           3.0016   -2.4862   -0.3680 H       1  UNL1        0.0439
     36 H           4.0508   -1.7465   -1.5517 H       1  UNL1        0.0439
     37 H           4.3866   -1.5855    1.4962 H       1  UNL1        0.0437
     38 H           5.3978   -2.4547    0.3548 H       1  UNL1        0.0437
     39 H           6.0916   -0.4353   -0.5968 H       1  UNL1        0.1220
     40 H           5.4610    1.7026    0.1100 H       1  UNL1        0.0437
     41 H           4.4216    1.0052    1.3406 H       1  UNL1        0.0437
     42 H           3.0870    1.7314   -0.6422 H       1  UNL1        0.0439
     43 H           4.1011    0.8000   -1.7055 H       1  UNL1        0.0439
     44 H          -0.1502    3.1133   -0.2015 H       1  UNL1        0.0632
     45 H          -0.9529    2.5938   -1.6504 H       1  UNL1        0.0632
     46 H          -2.5339    2.9043    0.0940 H       1  UNL1        0.1487
@<TRIPOS>BOND
     1     1     2    1
     2     2     3   ar
     3     3     4   ar
     4     4     5   ar
     5     5     6    2
     6     5     7   ar
     7     7     8    1
     8     7     9   ar
     9     9    10    2
    10     4    11    1
    11    11    12    1
    12    12    13    1
    13    13    14    1
    14    14    15    1
    15    15    16    1
    16    16    17    1
    17    17    18    1
    18    18    19    1
    19    19    20    1
    20    12    21    1
    21    21    22    1
    22     9     2   ar
    23    20    15    1
    24    22     3    1
    25     1    23    1
    26     1    24    1
    27     1    25    1
    28     8    26    1
    29     8    27    1
    30     8    28    1
    31    11    29    1
    32    11    30    1
    33    13    31    1
    34    13    32    1
    35    14    33    1
    36    14    34    1
    37    16    35    1
    38    16    36    1
    39    17    37    1
    40    17    38    1
    41    18    39    1
    42    19    40    1
    43    19    41    1
    44    20    42    1
    45    20    43    1
    46    21    44    1
    47    21    45    1
    48    22    46    1
