@<TRIPOS>MOLECULE
*****
 31 33 0 0 0
SMALL
GASTEIGER

@<TRIPOS>ATOM
      1 C          -0.0203   -1.1003    2.4433 C.3     1  UNL1        0.0125
      2 N          -0.0061   -0.5318    1.1214 N.ar    1  UNL1       -0.3420
      3 C          -1.1155   -0.3262    0.3452 C.ar    1  UNL1        0.0581
      4 C          -2.5257   -0.4767    0.2964 C.ar    1  UNL1       -0.0232
      5 C          -3.0237   -0.0198   -0.9295 C.ar    1  UNL1        0.0167
      6 C          -4.3607    0.0291   -1.4361 C.2     1  UNL1       -0.0201
      7 C          -5.3177   -0.8935   -1.2133 C.2     1  UNL1        0.1292
      8 C          -6.6000   -0.6977   -1.8028 C.1     1  UNL1        0.1102
      9 N          -7.6373   -0.5163   -2.2899 N.1     1  UNL1       -0.1901
     10 C          -5.1213   -2.0741   -0.4441 C.1     1  UNL1        0.1102
     11 N          -4.9638   -3.0297    0.1956 N.1     1  UNL1       -0.1901
     12 S          -1.7606    0.6334   -1.9736 S.2     1  UNL1       -0.0861
     13 C          -0.6585    0.2394   -0.7898 C.ar    1  UNL1        0.0519
     14 C           0.6790    0.3842   -0.7130 C.ar    1  UNL1        0.0519
     15 S           1.7999    1.0081   -1.7739 S.2     1  UNL1       -0.0861
     16 C           3.0411    0.6665   -0.5677 C.ar    1  UNL1        0.0167
     17 C           4.3842    1.0154   -0.9157 C.2     1  UNL1       -0.0201
     18 C           5.3231    1.4674   -0.0609 C.2     1  UNL1        0.1292
     19 C           6.6149    1.7801   -0.5746 C.1     1  UNL1        0.1102
     20 N           7.6603    2.0254   -1.0140 N.1     1  UNL1       -0.1901
     21 C           5.0985    1.6807    1.3276 C.1     1  UNL1        0.1102
     22 N           4.9180    1.8407    2.4630 N.1     1  UNL1       -0.1901
     23 C           2.5227    0.0547    0.5798 C.ar    1  UNL1       -0.0232
     24 C           1.1149   -0.0871    0.4723 C.ar    1  UNL1        0.0581
     25 H           0.9211   -1.6265    2.6213 H       1  UNL1        0.0456
     26 H          -0.8499   -1.8075    2.5247 H       1  UNL1        0.0456
     27 H          -0.1427   -0.2879    3.1640 H       1  UNL1        0.0456
     28 H          -3.1215   -0.8873    1.1022 H       1  UNL1        0.0650
     29 H          -4.5979    0.8773   -2.0807 H       1  UNL1        0.0648
     30 H           4.6423    0.9310   -1.9729 H       1  UNL1        0.0648
     31 H           3.1032   -0.2710    1.4340 H       1  UNL1        0.0650
@<TRIPOS>BOND
     1     1     2    1
     2     2     3   ar
     3     3     4   ar
     4     4     5   ar
     5     5     6    1
     6     6     7    2
     7     7     8    1
     8     8     9    3
     9     7    10    1
    10    10    11    3
    11     5    12   ar
    12    12    13   ar
    13    13    14   ar
    14    14    15   ar
    15    15    16   ar
    16    16    17    1
    17    17    18    2
    18    18    19    1
    19    19    20    3
    20    18    21    1
    21    21    22    3
    22    16    23   ar
    23    23    24   ar
    24    24     2   ar
    25    13     3   ar
    26    24    14   ar
    27     1    25    1
    28     1    26    1
    29     1    27    1
    30     4    28    1
    31     6    29    1
    32    17    30    1
    33    23    31    1
