@<TRIPOS>MOLECULE
*****
 37 39 0 0 0
SMALL
GASTEIGER

@<TRIPOS>ATOM
      1 C           2.0181   -2.9679    0.8541 C.3     1  UNL1        0.0124
      2 N           1.2355   -1.8139    0.4640 N.ar    1  UNL1       -0.3429
      3 C           1.7426   -0.7082   -0.1908 C.ar    1  UNL1        0.0499
      4 C           3.0403   -0.4120   -0.6376 C.ar    1  UNL1       -0.0370
      5 C           3.2575    0.8137   -1.2767 C.ar    1  UNL1       -0.0526
      6 C           2.2139    1.7185   -1.4788 C.ar    1  UNL1       -0.0224
      7 C           2.4400    3.0112   -2.1385 C.2     1  UNL1       -0.0268
      8 C           2.8479    3.1887   -3.4113 C.2     1  UNL1        0.1287
      9 C           3.1119    2.1037   -4.2952 C.1     1  UNL1        0.1102
     10 N           3.3401    1.2245   -5.0177 N.1     1  UNL1       -0.1901
     11 C           3.0094    4.5141   -3.9062 C.1     1  UNL1        0.1102
     12 N           3.1336    5.6031   -4.2871 N.1     1  UNL1       -0.1901
     13 C           0.9251    1.4108   -1.0190 C.ar    1  UNL1       -0.0448
     14 C           0.6813    0.1789   -0.3718 C.ar    1  UNL1        0.0082
     15 C          -0.4896   -0.4279    0.1813 C.ar    1  UNL1        0.0082
     16 C          -1.8383   -0.0208    0.2878 C.ar    1  UNL1       -0.0448
     17 C          -2.7795   -0.8639    0.8963 C.ar    1  UNL1       -0.0224
     18 C          -4.1768   -0.4194    0.9818 C.2     1  UNL1       -0.0268
     19 C          -4.8738   -0.2153    2.1177 C.2     1  UNL1        0.1287
     20 C          -6.2236    0.2295    2.0293 C.1     1  UNL1        0.1102
     21 N          -7.3216    0.5920    1.9321 N.1     1  UNL1       -0.1901
     22 C          -4.3131   -0.4102    3.4124 C.1     1  UNL1        0.1102
     23 N          -3.8666   -0.5782    4.4705 N.1     1  UNL1       -0.1901
     24 C          -2.3847   -2.1151    1.3731 C.ar    1  UNL1       -0.0526
     25 C          -1.0544   -2.5393    1.2800 C.ar    1  UNL1       -0.0370
     26 C          -0.1211   -1.6757    0.6848 C.ar    1  UNL1        0.0499
     27 H           3.0415   -2.6585    1.0784 H       1  UNL1        0.0456
     28 H           2.0053   -3.6809    0.0261 H       1  UNL1        0.0456
     29 H           1.5886   -3.4162    1.7530 H       1  UNL1        0.0456
     30 H           3.8636   -1.1058   -0.4981 H       1  UNL1        0.0638
     31 H           4.2670    1.0453   -1.6120 H       1  UNL1        0.0624
     32 H           2.2245    3.8739   -1.5078 H       1  UNL1        0.0643
     33 H           0.1031    2.1067   -1.1624 H       1  UNL1        0.0630
     34 H          -2.1319    0.9498   -0.1025 H       1  UNL1        0.0630
     35 H          -4.6415   -0.2305    0.0137 H       1  UNL1        0.0643
     36 H          -3.1076   -2.7907    1.8271 H       1  UNL1        0.0624
     37 H          -0.7668   -3.5142    1.6614 H       1  UNL1        0.0638
@<TRIPOS>BOND
     1     1     2    1
     2     2     3   ar
     3     3     4   ar
     4     4     5   ar
     5     5     6   ar
     6     6     7    1
     7     7     8    2
     8     8     9    1
     9     9    10    3
    10     8    11    1
    11    11    12    3
    12     6    13   ar
    13    13    14   ar
    14    14    15   ar
    15    15    16   ar
    16    16    17   ar
    17    17    18    1
    18    18    19    2
    19    19    20    1
    20    20    21    3
    21    19    22    1
    22    22    23    3
    23    17    24   ar
    24    24    25   ar
    25    25    26   ar
    26    26     2   ar
    27    14     3   ar
    28    26    15   ar
    29     1    27    1
    30     1    28    1
    31     1    29    1
    32     4    30    1
    33     5    31    1
    34     7    32    1
    35    13    33    1
    36    16    34    1
    37    18    35    1
    38    24    36    1
    39    25    37    1
