@<TRIPOS>MOLECULE
*****
 43 47 0 0 0
SMALL
GASTEIGER

@<TRIPOS>ATOM
      1 C          -5.5980   -0.9960   -1.3451 C.3     1  UNL1        0.0086
      2 N          -4.3135   -0.6607   -0.7910 N.am    1  UNL1       -0.2699
      3 C          -4.0416    0.5173   -0.0857 C.ar    1  UNL1        0.0441
      4 C          -4.9389    1.5125    0.2697 C.ar    1  UNL1       -0.0397
      5 C          -4.4748    2.5562    1.0701 C.ar    1  UNL1       -0.0600
      6 C          -3.1475    2.5673    1.5207 C.ar    1  UNL1       -0.0611
      7 C          -2.2573    1.5524    1.1498 C.ar    1  UNL1       -0.0521
      8 C          -2.6936    0.5562    0.2893 C.ar    1  UNL1        0.0093
      9 C          -2.0668   -0.6691   -0.2408 C.2     1  UNL1        0.0588
     10 C          -0.7770   -1.0480   -0.2704 C.2     1  UNL1        0.0588
     11 C           0.4574   -0.2550   -0.1217 C.ar    1  UNL1        0.0093
     12 C           0.7298    1.1009   -0.1897 C.ar    1  UNL1       -0.0515
     13 C           2.0581    1.5346   -0.0722 C.ar    1  UNL1       -0.0528
     14 C           3.1216    0.6189    0.0684 C.ar    1  UNL1       -0.0095
     15 C           4.5114    1.0798    0.1792 C.ar    1  UNL1        0.0194
     16 C           5.6298    0.6243   -0.4961 C.ar    1  UNL1       -0.0469
     17 C           6.8216    1.3041   -0.1091 C.ar    1  UNL1       -0.0541
     18 C           6.5802    2.2535    0.8570 C.ar    1  UNL1       -0.0237
     19 S           4.9289    2.3208    1.2912 S.2     1  UNL1       -0.0967
     20 C           2.8417   -0.7545    0.0490 C.ar    1  UNL1       -0.0315
     21 C           1.5202   -1.1620   -0.0679 C.ar    1  UNL1        0.0447
     22 N           1.0439   -2.4720   -0.1994 N.am    1  UNL1       -0.2699
     23 C           1.8733   -3.6467   -0.1497 C.3     1  UNL1        0.0086
     24 C          -0.3448   -2.5029   -0.3226 C.2     1  UNL1        0.2520
     25 O          -1.0400   -3.5000   -0.3262 O.2     1  UNL1       -0.2696
     26 C          -3.1701   -1.4442   -0.9399 C.2     1  UNL1        0.2520
     27 O          -3.0771   -2.4534   -1.6114 O.2     1  UNL1       -0.2696
     28 H          -5.8836   -0.2376   -2.0801 H       1  UNL1        0.0433
     29 H          -6.3409   -1.0352   -0.5430 H       1  UNL1        0.0433
     30 H          -5.5627   -1.9707   -1.8399 H       1  UNL1        0.0433
     31 H          -5.9780    1.4812   -0.0377 H       1  UNL1        0.0636
     32 H          -5.1547    3.3487    1.3749 H       1  UNL1        0.0618
     33 H          -2.8125    3.3621    2.1844 H       1  UNL1        0.0618
     34 H          -1.2597    1.5472    1.5738 H       1  UNL1        0.0624
     35 H          -0.0481    1.8342   -0.3701 H       1  UNL1        0.0624
     36 H           2.2618    2.6034   -0.1222 H       1  UNL1        0.0624
     37 H           5.5963   -0.1578   -1.2453 H       1  UNL1        0.0629
     38 H           7.8045    1.1056   -0.5187 H       1  UNL1        0.0623
     39 H           7.2944    2.9120    1.3322 H       1  UNL1        0.0693
     40 H           3.6432   -1.4825    0.1151 H       1  UNL1        0.0643
     41 H           2.3677   -3.6986    0.8249 H       1  UNL1        0.0433
     42 H           1.2727   -4.5500   -0.2888 H       1  UNL1        0.0433
     43 H           2.6228   -3.5963   -0.9450 H       1  UNL1        0.0433
@<TRIPOS>BOND
     1     1     2    1
     2     2     3    1
     3     3     4   ar
     4     4     5   ar
     5     5     6   ar
     6     6     7   ar
     7     7     8   ar
     8     8     9    1
     9     9    10    2
    10    10    11    1
    11    11    12   ar
    12    12    13   ar
    13    13    14   ar
    14    14    15    1
    15    15    16   ar
    16    16    17   ar
    17    17    18   ar
    18    18    19   ar
    19    14    20   ar
    20    20    21   ar
    21    21    22    1
    22    22    23    1
    23    22    24   am
    24    24    25    2
    25     9    26    1
    26    26    27    2
    27    26     2   am
    28     8     3   ar
    29    24    10    1
    30    21    11   ar
    31    19    15   ar
    32     1    28    1
    33     1    29    1
    34     1    30    1
    35     4    31    1
    36     5    32    1
    37     6    33    1
    38     7    34    1
    39    12    35    1
    40    13    36    1
    41    16    37    1
    42    17    38    1
    43    18    39    1
    44    20    40    1
    45    23    41    1
    46    23    42    1
    47    23    43    1
