@<TRIPOS>MOLECULE
*****
 50 56 0 0 0
SMALL
GASTEIGER

@<TRIPOS>ATOM
      1 C          -5.3273    1.2736    2.3611 C.3     1  UNL1        0.0124
      2 N          -5.3219    0.7186    1.0244 N.ar    1  UNL1       -0.3429
      3 C          -6.4260    0.6436    0.1982 C.ar    1  UNL1        0.0498
      4 C          -7.7568    1.0554    0.3860 C.ar    1  UNL1       -0.0376
      5 C          -8.6697    0.8367   -0.6503 C.ar    1  UNL1       -0.0598
      6 C          -8.2729    0.2298   -1.8367 C.ar    1  UNL1       -0.0611
      7 C          -6.9461   -0.1723   -2.0173 C.ar    1  UNL1       -0.0520
      8 C          -6.0042    0.0377   -0.9871 C.ar    1  UNL1        0.0076
      9 C          -4.6068   -0.2365   -0.8602 C.ar    1  UNL1        0.0076
     10 C          -3.6488   -0.8183   -1.7151 C.ar    1  UNL1       -0.0514
     11 C          -2.3188   -0.9367   -1.2910 C.ar    1  UNL1       -0.0528
     12 C          -1.9170   -0.4833   -0.0303 C.ar    1  UNL1       -0.0093
     13 C          -0.5238   -0.6175    0.4161 C.ar    1  UNL1        0.0200
     14 C          -0.0470   -1.1024    1.6195 C.ar    1  UNL1       -0.0463
     15 C           1.3761   -1.0655    1.7005 C.ar    1  UNL1       -0.0463
     16 C           1.9537   -0.5598    0.5535 C.ar    1  UNL1        0.0221
     17 C           3.3632   -0.3460    0.2675 C.ar    1  UNL1        0.0196
     18 C           4.1857    0.4833    1.0601 C.ar    1  UNL1       -0.0507
     19 C           5.5627    0.6857    0.7917 C.ar    1  UNL1       -0.0507
     20 C           6.2334    0.0762   -0.2914 C.ar    1  UNL1        0.0196
     21 C           7.6503    0.2804   -0.5519 C.ar    1  UNL1        0.0215
     22 C           8.7203    0.0653    0.2968 C.ar    1  UNL1       -0.0469
     23 C           9.9687    0.4084   -0.3001 C.ar    1  UNL1       -0.0541
     24 C           9.8110    0.8900   -1.5795 C.ar    1  UNL1       -0.0237
     25 S           8.1687    0.9308   -2.0518 S.2     1  UNL1       -0.0966
     26 C           5.4377   -0.7829   -1.0897 C.ar    1  UNL1        0.1430
     27 N           5.7636   -1.5367   -2.1503 N.ar    1  UNL1       -0.0483
     28 O           4.6068   -2.1825   -2.5357 O.2     1  UNL1       -0.2415
     29 N           3.5424   -1.8616   -1.7182 N.ar    1  UNL1       -0.0483
     30 C           4.0141   -0.9919   -0.8124 C.ar    1  UNL1        0.1430
     31 S           0.7658   -0.1012   -0.5904 S.2     1  UNL1       -0.0882
     32 C          -2.8673    0.0910    0.8326 C.ar    1  UNL1       -0.0294
     33 C          -4.2021    0.2042    0.3996 C.ar    1  UNL1        0.0504
     34 H          -5.0244    2.3213    2.2942 H       1  UNL1        0.0456
     35 H          -4.6322    0.7120    2.9899 H       1  UNL1        0.0456
     36 H          -6.3266    1.1921    2.7939 H       1  UNL1        0.0456
     37 H          -8.0821    1.5325    1.3045 H       1  UNL1        0.0638
     38 H          -9.7047    1.1468   -0.5255 H       1  UNL1        0.0618
     39 H          -8.9963    0.0682   -2.6318 H       1  UNL1        0.0618
     40 H          -6.6425   -0.6413   -2.9485 H       1  UNL1        0.0624
     41 H          -3.9365   -1.1736   -2.7004 H       1  UNL1        0.0624
     42 H          -1.6004   -1.3989   -1.9652 H       1  UNL1        0.0624
     43 H          -0.6907   -1.4793    2.4051 H       1  UNL1        0.0629
     44 H           1.9443   -1.4083    2.5568 H       1  UNL1        0.0629
     45 H           3.7457    1.0053    1.9110 H       1  UNL1        0.0625
     46 H           6.1203    1.3551    1.4485 H       1  UNL1        0.0625
     47 H           8.6170   -0.3322    1.2994 H       1  UNL1        0.0629
     48 H          10.9322    0.3072    0.1844 H       1  UNL1        0.0623
     49 H          10.5803    1.2227   -2.2629 H       1  UNL1        0.0693
     50 H          -2.5708    0.4544    1.8116 H       1  UNL1        0.0645
@<TRIPOS>BOND
     1     1     2    1
     2     2     3   ar
     3     3     4   ar
     4     4     5   ar
     5     5     6   ar
     6     6     7   ar
     7     7     8   ar
     8     8     9   ar
     9     9    10   ar
    10    10    11   ar
    11    11    12   ar
    12    12    13    1
    13    13    14   ar
    14    14    15   ar
    15    15    16   ar
    16    16    17    1
    17    17    18   ar
    18    18    19   ar
    19    19    20   ar
    20    20    21    1
    21    21    22   ar
    22    22    23   ar
    23    23    24   ar
    24    24    25   ar
    25    20    26   ar
    26    26    27   ar
    27    27    28   ar
    28    28    29   ar
    29    29    30   ar
    30    16    31   ar
    31    12    32   ar
    32    32    33   ar
    33    33     2   ar
    34     8     3   ar
    35    33     9   ar
    36    31    13   ar
    37    30    17   ar
    38    25    21   ar
    39    30    26   ar
    40     1    34    1
    41     1    35    1
    42     1    36    1
    43     4    37    1
    44     5    38    1
    45     6    39    1
    46     7    40    1
    47    10    41    1
    48    11    42    1
    49    14    43    1
    50    15    44    1
    51    18    45    1
    52    19    46    1
    53    22    47    1
    54    23    48    1
    55    24    49    1
    56    32    50    1
