@<TRIPOS>MOLECULE
*****
 50 56 0 0 0
SMALL
GASTEIGER

@<TRIPOS>ATOM
      1 C           4.5695   -1.3748   -2.1295 C.3     1  UNL1        0.0124
      2 N           4.9242   -0.7509   -0.8726 N.ar    1  UNL1       -0.3429
      3 C           6.2096   -0.4326   -0.4812 C.ar    1  UNL1        0.0498
      4 C           7.4484   -0.6161   -1.1197 C.ar    1  UNL1       -0.0376
      5 C           8.6025   -0.1755   -0.4647 C.ar    1  UNL1       -0.0598
      6 C           8.5290    0.4270    0.7862 C.ar    1  UNL1       -0.0611
      7 C           7.2935    0.6014    1.4167 C.ar    1  UNL1       -0.0520
      8 C           6.1130    0.1647    0.7777 C.ar    1  UNL1        0.0076
      9 C           4.7312    0.1823    1.1444 C.ar    1  UNL1        0.0076
     10 C           4.0319    0.6402    2.2795 C.ar    1  UNL1       -0.0514
     11 C           2.6396    0.4974    2.3417 C.ar    1  UNL1       -0.0528
     12 C           1.9222   -0.0908    1.2944 C.ar    1  UNL1       -0.0093
     13 C           0.4643   -0.2380    1.4057 C.ar    1  UNL1        0.0200
     14 C          -0.2741   -0.7060    2.4749 C.ar    1  UNL1       -0.0463
     15 C          -1.6769   -0.6841    2.2235 C.ar    1  UNL1       -0.0463
     16 C          -1.9883   -0.1940    0.9692 C.ar    1  UNL1        0.0220
     17 C          -3.2992   -0.0067    0.3455 C.ar    1  UNL1        0.0169
     18 C          -3.5774   -0.3531   -0.9948 C.ar    1  UNL1       -0.0508
     19 C          -4.8435   -0.1793   -1.6007 C.ar    1  UNL1       -0.0508
     20 C          -5.9627    0.3589   -0.9290 C.ar    1  UNL1        0.0169
     21 C          -7.2724    0.5310   -1.5594 C.ar    1  UNL1        0.0214
     22 C          -8.5311    0.2458   -1.0595 C.ar    1  UNL1       -0.0469
     23 C          -9.5765    0.5586   -1.9765 C.ar    1  UNL1       -0.0541
     24 C          -9.0885    1.0778   -3.1527 C.ar    1  UNL1       -0.0237
     25 S          -7.3839    1.1864   -3.1458 S.2     1  UNL1       -0.0966
     26 C          -5.7544    0.7237    0.4350 C.ar    1  UNL1        0.1087
     27 N          -6.6584    1.2519    1.2814 N.ar    1  UNL1       -0.1901
     28 S          -5.8924    1.5030    2.7243 S.2     1  UNL1        0.1165
     29 N          -4.3790    0.9396    2.3719 N.ar    1  UNL1       -0.1901
     30 C          -4.3909    0.5367    1.0874 C.ar    1  UNL1        0.1087
     31 S          -0.5611    0.2377    0.1172 S.2     1  UNL1       -0.0882
     32 C           2.6118   -0.5529    0.1596 C.ar    1  UNL1       -0.0294
     33 C           4.0105   -0.4020    0.1036 C.ar    1  UNL1        0.0504
     34 H           3.6383   -0.9375   -2.4982 H       1  UNL1        0.0456
     35 H           4.4482   -2.4464   -1.9532 H       1  UNL1        0.0456
     36 H           5.3517   -1.1977   -2.8701 H       1  UNL1        0.0456
     37 H           7.5239   -1.0860   -2.0947 H       1  UNL1        0.0638
     38 H           9.5710   -0.3068   -0.9418 H       1  UNL1        0.0618
     39 H           9.4369    0.7635    1.2803 H       1  UNL1        0.0618
     40 H           7.2444    1.0693    2.3955 H       1  UNL1        0.0624
     41 H           4.5676    1.1014    3.1040 H       1  UNL1        0.0624
     42 H           2.1195    0.8653    3.2238 H       1  UNL1        0.0624
     43 H           0.1703   -1.0554    3.3992 H       1  UNL1        0.0629
     44 H          -2.4223   -1.0120    2.9387 H       1  UNL1        0.0629
     45 H          -2.7858   -0.7899   -1.6058 H       1  UNL1        0.0625
     46 H          -4.9488   -0.4931   -2.6405 H       1  UNL1        0.0625
     47 H          -8.6996   -0.1695   -0.0725 H       1  UNL1        0.0629
     48 H         -10.6314    0.4131   -1.7788 H       1  UNL1        0.0623
     49 H          -9.6510    1.4034   -4.0169 H       1  UNL1        0.0693
     50 H           2.0763   -1.0290   -0.6560 H       1  UNL1        0.0645
@<TRIPOS>BOND
     1     1     2    1
     2     2     3   ar
     3     3     4   ar
     4     4     5   ar
     5     5     6   ar
     6     6     7   ar
     7     7     8   ar
     8     8     9   ar
     9     9    10   ar
    10    10    11   ar
    11    11    12   ar
    12    12    13    1
    13    13    14   ar
    14    14    15   ar
    15    15    16   ar
    16    16    17    1
    17    17    18   ar
    18    18    19   ar
    19    19    20   ar
    20    20    21    1
    21    21    22   ar
    22    22    23   ar
    23    23    24   ar
    24    24    25   ar
    25    20    26   ar
    26    26    27   ar
    27    27    28   ar
    28    28    29   ar
    29    29    30   ar
    30    16    31   ar
    31    12    32   ar
    32    32    33   ar
    33    33     2   ar
    34     8     3   ar
    35    33     9   ar
    36    31    13   ar
    37    30    17   ar
    38    25    21   ar
    39    30    26   ar
    40     1    34    1
    41     1    35    1
    42     1    36    1
    43     4    37    1
    44     5    38    1
    45     6    39    1
    46     7    40    1
    47    10    41    1
    48    11    42    1
    49    14    43    1
    50    15    44    1
    51    18    45    1
    52    19    46    1
    53    22    47    1
    54    23    48    1
    55    24    49    1
    56    32    50    1
