@<TRIPOS>MOLECULE
*****
 49 55 0 0 0
SMALL
GASTEIGER

@<TRIPOS>ATOM
      1 C          -4.1091   -2.5041   -1.3543 C.3     1  UNL1        0.0124
      2 N          -4.6072   -1.2959   -0.7317 N.ar    1  UNL1       -0.3429
      3 C          -5.9302   -0.8995   -0.7268 C.ar    1  UNL1        0.0498
      4 C          -7.0824   -1.5023   -1.2604 C.ar    1  UNL1       -0.0376
      5 C          -8.3067   -0.8463   -1.1006 C.ar    1  UNL1       -0.0598
      6 C          -8.3846    0.3695   -0.4303 C.ar    1  UNL1       -0.0611
      7 C          -7.2343    0.9599    0.1018 C.ar    1  UNL1       -0.0520
      8 C          -5.9856    0.3179   -0.0448 C.ar    1  UNL1        0.0076
      9 C          -4.6582    0.6377    0.3794 C.ar    1  UNL1        0.0076
     10 C          -4.1006    1.7115    1.1028 C.ar    1  UNL1       -0.0514
     11 C          -2.7264    1.7265    1.3751 C.ar    1  UNL1       -0.0528
     12 C          -1.8887    0.6939    0.9399 C.ar    1  UNL1       -0.0093
     13 C          -0.4548    0.7364    1.2587 C.ar    1  UNL1        0.0200
     14 C           0.1520    1.0269    2.4659 C.ar    1  UNL1       -0.0463
     15 C           1.5752    0.9833    2.3893 C.ar    1  UNL1       -0.0462
     16 C           2.0253    0.6539    1.1258 C.ar    1  UNL1        0.0236
     17 C           3.3947    0.5377    0.6564 C.ar    1  UNL1        0.0377
     18 C           4.3718    1.5183    0.8452 C.ar    1  UNL1        0.0388
     19 N           5.6853    1.4716    0.4449 N.ar    1  UNL1       -0.2515
     20 C           6.1860    0.3770   -0.2198 C.ar    1  UNL1        0.1083
     21 C           7.5871    0.3707   -0.6351 C.ar    1  UNL1        0.0398
     22 C           8.2427   -0.4301   -1.5576 C.ar    1  UNL1       -0.0454
     23 C           9.6310   -0.1263   -1.6798 C.ar    1  UNL1       -0.0541
     24 C          10.0056    0.9015   -0.8482 C.ar    1  UNL1       -0.0237
     25 S           8.6928    1.4921    0.0680 S.2     1  UNL1       -0.0951
     26 C           5.2877   -0.6872   -0.4563 C.ar    1  UNL1        0.1611
     27 N           5.4547   -1.8796   -1.0496 N.ar    1  UNL1       -0.0467
     28 O           4.2349   -2.5196   -0.9805 O.2     1  UNL1       -0.2415
     29 N           3.2874   -1.7469   -0.3440 N.ar    1  UNL1       -0.0482
     30 C           3.8964   -0.5979   -0.0114 C.ar    1  UNL1        0.1459
     31 S           0.7167    0.4417    0.0417 S.2     1  UNL1       -0.0881
     32 C          -2.4370   -0.3830    0.2211 C.ar    1  UNL1       -0.0294
     33 C          -3.8180   -0.3880   -0.0522 C.ar    1  UNL1        0.0504
     34 H          -4.0775   -3.2882   -0.5941 H       1  UNL1        0.0456
     35 H          -3.1108   -2.3196   -1.7584 H       1  UNL1        0.0456
     36 H          -4.7655   -2.7958   -2.1769 H       1  UNL1        0.0456
     37 H          -7.0388   -2.4515   -1.7842 H       1  UNL1        0.0638
     38 H          -9.2104   -1.2948   -1.5068 H       1  UNL1        0.0618
     39 H          -9.3452    0.8650   -0.3159 H       1  UNL1        0.0618
     40 H          -7.3037    1.9075    0.6275 H       1  UNL1        0.0624
     41 H          -4.7318    2.5245    1.4492 H       1  UNL1        0.0624
     42 H          -2.3173    2.5693    1.9281 H       1  UNL1        0.0624
     43 H          -0.4011    1.2505    3.3705 H       1  UNL1        0.0629
     44 H           2.2302    1.1737    3.2316 H       1  UNL1        0.0629
     45 H           4.1148    2.4480    1.3544 H       1  UNL1        0.0837
     46 H           7.7563   -1.2071   -2.1355 H       1  UNL1        0.0629
     47 H          10.3161   -0.6368   -2.3457 H       1  UNL1        0.0623
     48 H          10.9885    1.3378   -0.7339 H       1  UNL1        0.0693
     49 H          -1.8072   -1.2039   -0.1086 H       1  UNL1        0.0645
@<TRIPOS>BOND
     1     1     2    1
     2     2     3   ar
     3     3     4   ar
     4     4     5   ar
     5     5     6   ar
     6     6     7   ar
     7     7     8   ar
     8     8     9   ar
     9     9    10   ar
    10    10    11   ar
    11    11    12   ar
    12    12    13    1
    13    13    14   ar
    14    14    15   ar
    15    15    16   ar
    16    16    17    1
    17    17    18   ar
    18    18    19   ar
    19    19    20   ar
    20    20    21    1
    21    21    22   ar
    22    22    23   ar
    23    23    24   ar
    24    24    25   ar
    25    20    26   ar
    26    26    27   ar
    27    27    28   ar
    28    28    29   ar
    29    29    30   ar
    30    16    31   ar
    31    12    32   ar
    32    32    33   ar
    33    33     2   ar
    34     8     3   ar
    35    33     9   ar
    36    31    13   ar
    37    30    17   ar
    38    25    21   ar
    39    30    26   ar
    40     1    34    1
    41     1    35    1
    42     1    36    1
    43     4    37    1
    44     5    38    1
    45     6    39    1
    46     7    40    1
    47    10    41    1
    48    11    42    1
    49    14    43    1
    50    15    44    1
    51    18    45    1
    52    22    46    1
    53    23    47    1
    54    24    48    1
    55    32    49    1
