@<TRIPOS>MOLECULE
*****
 49 55 0 0 0
SMALL
GASTEIGER

@<TRIPOS>ATOM
      1 C          -5.4432   -2.0538   -0.4445 C.3     1  UNL1        0.0124
      2 N          -5.3028   -0.6834   -0.0006 N.ar    1  UNL1       -0.3429
      3 C          -6.3281    0.0863    0.5132 C.ar    1  UNL1        0.0498
      4 C          -7.6831   -0.2069    0.7454 C.ar    1  UNL1       -0.0376
      5 C          -8.4950    0.7976    1.2808 C.ar    1  UNL1       -0.0598
      6 C          -7.9770    2.0533    1.5781 C.ar    1  UNL1       -0.0611
      7 C          -6.6269    2.3350    1.3488 C.ar    1  UNL1       -0.0520
      8 C          -5.7852    1.3382    0.8098 C.ar    1  UNL1        0.0076
      9 C          -4.3957    1.2983    0.4751 C.ar    1  UNL1        0.0076
     10 C          -3.3483    2.2381    0.5586 C.ar    1  UNL1       -0.0514
     11 C          -2.0571    1.8789    0.1504 C.ar    1  UNL1       -0.0528
     12 C          -1.7826    0.5975   -0.3383 C.ar    1  UNL1       -0.0093
     13 C          -0.4314    0.2254   -0.7769 C.ar    1  UNL1        0.0200
     14 C          -0.0471   -0.3864   -1.9533 C.ar    1  UNL1       -0.0463
     15 C           1.3590   -0.6110   -2.0191 C.ar    1  UNL1       -0.0462
     16 C           2.0260   -0.1737   -0.8896 C.ar    1  UNL1        0.0235
     17 C           3.4509   -0.2298   -0.5718 C.ar    1  UNL1        0.0350
     18 C           4.1623    0.7752    0.0913 C.ar    1  UNL1        0.0387
     19 N           5.4953    0.7892    0.4125 N.ar    1  UNL1       -0.2515
     20 C           6.3168   -0.2599    0.0937 C.ar    1  UNL1        0.1056
     21 C           7.7303   -0.1794    0.4602 C.ar    1  UNL1        0.0397
     22 C           8.8341   -0.8124   -0.0895 C.ar    1  UNL1       -0.0454
     23 C          10.0576   -0.4736    0.5601 C.ar    1  UNL1       -0.0541
     24 C           9.8611    0.4130    1.5917 C.ar    1  UNL1       -0.0237
     25 S           8.2160    0.8314    1.7701 S.2     1  UNL1       -0.0951
     26 C           5.7415   -1.3652   -0.5885 C.ar    1  UNL1        0.1268
     27 N           6.3440   -2.4991   -0.9958 N.ar    1  UNL1       -0.1886
     28 S           5.1889   -3.4365   -1.7164 S.2     1  UNL1        0.1166
     29 N           3.8654   -2.4579   -1.5673 N.ar    1  UNL1       -0.1900
     30 C           4.2610   -1.3399   -0.9286 C.ar    1  UNL1        0.1116
     31 S           0.9202    0.5025    0.2380 S.2     1  UNL1       -0.0881
     32 C          -2.8222   -0.3446   -0.4320 C.ar    1  UNL1       -0.0294
     33 C          -4.1170    0.0253   -0.0217 C.ar    1  UNL1        0.0504
     34 H          -6.4696   -2.2353   -0.7704 H       1  UNL1        0.0456
     35 H          -4.7760   -2.2319   -1.2912 H       1  UNL1        0.0456
     36 H          -5.1862   -2.7084    0.3917 H       1  UNL1        0.0456
     37 H          -8.1022   -1.1823    0.5214 H       1  UNL1        0.0638
     38 H          -9.5466    0.5923    1.4675 H       1  UNL1        0.0618
     39 H          -8.6232    2.8218    1.9944 H       1  UNL1        0.0618
     40 H          -6.2285    3.3164    1.5882 H       1  UNL1        0.0624
     41 H          -3.5384    3.2377    0.9385 H       1  UNL1        0.0624
     42 H          -1.2684    2.6254    0.2147 H       1  UNL1        0.0624
     43 H          -0.7421   -0.6563   -2.7395 H       1  UNL1        0.0629
     44 H           1.8529   -1.0759   -2.8646 H       1  UNL1        0.0629
     45 H           3.6510    1.6861    0.4054 H       1  UNL1        0.0837
     46 H           8.7787   -1.4932   -0.9307 H       1  UNL1        0.0629
     47 H          11.0298   -0.8614    0.2818 H       1  UNL1        0.0623
     48 H          10.6046    0.8391    2.2511 H       1  UNL1        0.0693
     49 H          -2.6234   -1.3459   -0.8021 H       1  UNL1        0.0645
@<TRIPOS>BOND
     1     1     2    1
     2     2     3   ar
     3     3     4   ar
     4     4     5   ar
     5     5     6   ar
     6     6     7   ar
     7     7     8   ar
     8     8     9   ar
     9     9    10   ar
    10    10    11   ar
    11    11    12   ar
    12    12    13    1
    13    13    14   ar
    14    14    15   ar
    15    15    16   ar
    16    16    17    1
    17    17    18   ar
    18    18    19   ar
    19    19    20   ar
    20    20    21    1
    21    21    22   ar
    22    22    23   ar
    23    23    24   ar
    24    24    25   ar
    25    20    26   ar
    26    26    27   ar
    27    27    28   ar
    28    28    29   ar
    29    29    30   ar
    30    16    31   ar
    31    12    32   ar
    32    32    33   ar
    33    33     2   ar
    34     8     3   ar
    35    33     9   ar
    36    31    13   ar
    37    30    17   ar
    38    25    21   ar
    39    30    26   ar
    40     1    34    1
    41     1    35    1
    42     1    36    1
    43     4    37    1
    44     5    38    1
    45     6    39    1
    46     7    40    1
    47    10    41    1
    48    11    42    1
    49    14    43    1
    50    15    44    1
    51    18    45    1
    52    22    46    1
    53    23    47    1
    54    24    48    1
    55    32    49    1
