@<TRIPOS>MOLECULE
*****
 48 54 0 0 0
SMALL
GASTEIGER

@<TRIPOS>ATOM
      1 C          -5.2548    0.9781    2.2437 C.3     1  UNL1        0.0124
      2 N          -5.1446    0.6487    0.8387 N.ar    1  UNL1       -0.3429
      3 C          -6.2006    0.7411   -0.0482 C.ar    1  UNL1        0.0498
      4 C          -7.5350    1.1377    0.1439 C.ar    1  UNL1       -0.0376
      5 C          -8.3904    1.1296   -0.9618 C.ar    1  UNL1       -0.0598
      6 C          -7.9333    0.7407   -2.2167 C.ar    1  UNL1       -0.0611
      7 C          -6.6029    0.3490   -2.3972 C.ar    1  UNL1       -0.0520
      8 C          -5.7189    0.3481   -1.2970 C.ar    1  UNL1        0.0076
      9 C          -4.3371    0.0161   -1.1409 C.ar    1  UNL1        0.0076
     10 C          -3.3423   -0.4350   -2.0321 C.ar    1  UNL1       -0.0514
     11 C          -2.0446   -0.6759   -1.5636 C.ar    1  UNL1       -0.0528
     12 C          -1.7111   -0.4745   -0.2207 C.ar    1  UNL1       -0.0093
     13 C          -0.3530   -0.7401    0.2740 C.ar    1  UNL1        0.0200
     14 C           0.0307   -1.4440    1.3974 C.ar    1  UNL1       -0.0463
     15 C           1.4466   -1.4759    1.5677 C.ar    1  UNL1       -0.0447
     16 C           2.1273   -0.7890    0.5771 C.ar    1  UNL1        0.0421
     17 C           3.5581   -0.5811    0.3871 C.ar    1  UNL1        0.1306
     18 N           4.0308   -0.1123   -0.7997 N.ar    1  UNL1       -0.1457
     19 N           5.4271    0.1120   -1.0670 N.ar    1  UNL1       -0.1457
     20 C           6.4194   -0.1179   -0.1603 C.ar    1  UNL1        0.1306
     21 C           7.7891    0.1561   -0.5812 C.ar    1  UNL1        0.0416
     22 C           8.2212    0.5144   -1.8510 C.ar    1  UNL1       -0.0453
     23 C           9.6289    0.7188   -1.9315 C.ar    1  UNL1       -0.0541
     24 C          10.2423    0.5165   -0.7182 C.ar    1  UNL1       -0.0237
     25 S           9.1240    0.0876    0.4970 S.2     1  UNL1       -0.0950
     26 C           5.9749   -0.6101    1.0858 C.ar    1  UNL1        0.1644
     27 N           6.6520   -0.9543    2.1933 N.ar    1  UNL1       -0.0466
     28 O           5.7201   -1.3678    3.1164 O.2     1  UNL1       -0.2414
     29 N           4.4403   -1.2997    2.6137 N.ar    1  UNL1       -0.0466
     30 C           4.5492   -0.8396    1.3564 C.ar    1  UNL1        0.1644
     31 S           1.0121   -0.1150   -0.5480 S.2     1  UNL1       -0.0866
     32 C          -2.6984   -0.0304    0.6775 C.ar    1  UNL1       -0.0294
     33 C          -4.0014    0.2108    0.2004 C.ar    1  UNL1        0.0504
     34 H          -4.3237    0.7555    2.7665 H       1  UNL1        0.0456
     35 H          -6.0609    0.3803    2.6773 H       1  UNL1        0.0456
     36 H          -5.4779    2.0450    2.3286 H       1  UNL1        0.0456
     37 H          -7.9022    1.4441    1.1180 H       1  UNL1        0.0638
     38 H          -9.4279    1.4317   -0.8377 H       1  UNL1        0.0618
     39 H          -8.6130    0.7410   -3.0650 H       1  UNL1        0.0618
     40 H          -6.2537    0.0476   -3.3801 H       1  UNL1        0.0624
     41 H          -3.5786   -0.5971   -3.0798 H       1  UNL1        0.0624
     42 H          -1.2989   -1.0341   -2.2702 H       1  UNL1        0.0624
     43 H          -0.6715   -1.9281    2.0656 H       1  UNL1        0.0629
     44 H           1.9284   -1.9928    2.3893 H       1  UNL1        0.0630
     45 H           7.5481    0.6255   -2.6948 H       1  UNL1        0.0629
     46 H          10.1605    1.0009   -2.8323 H       1  UNL1        0.0623
     47 H          11.2950    0.6017   -0.4849 H       1  UNL1        0.0693
     48 H          -2.4495    0.1365    1.7207 H       1  UNL1        0.0645
@<TRIPOS>BOND
     1     1     2    1
     2     2     3   ar
     3     3     4   ar
     4     4     5   ar
     5     5     6   ar
     6     6     7   ar
     7     7     8   ar
     8     8     9   ar
     9     9    10   ar
    10    10    11   ar
    11    11    12   ar
    12    12    13    1
    13    13    14   ar
    14    14    15   ar
    15    15    16   ar
    16    16    17    1
    17    17    18   ar
    18    18    19   ar
    19    19    20   ar
    20    20    21    1
    21    21    22   ar
    22    22    23   ar
    23    23    24   ar
    24    24    25   ar
    25    20    26   ar
    26    26    27   ar
    27    27    28   ar
    28    28    29   ar
    29    29    30   ar
    30    16    31   ar
    31    12    32   ar
    32    32    33   ar
    33    33     2   ar
    34     8     3   ar
    35    33     9   ar
    36    31    13   ar
    37    30    17   ar
    38    25    21   ar
    39    30    26   ar
    40     1    34    1
    41     1    35    1
    42     1    36    1
    43     4    37    1
    44     5    38    1
    45     6    39    1
    46     7    40    1
    47    10    41    1
    48    11    42    1
    49    14    43    1
    50    15    44    1
    51    22    45    1
    52    23    46    1
    53    24    47    1
    54    32    48    1
