@<TRIPOS>MOLECULE
*****
 43 49 0 0 0
SMALL
GASTEIGER

@<TRIPOS>ATOM
      1 SI         -4.2656    1.0029   -1.2984 Si      1  UNL1        0.0000
      2 C          -5.5130    1.2860    0.0643 C.2     1  UNL1        0.0000
      3 C          -5.0323    1.0019    1.2847 C.2     1  UNL1        0.0000
      4 C          -3.6393    0.5620    1.2631 C.ar    1  UNL1        0.0000
      5 C          -2.9626    0.3830    0.0099 C.ar    1  UNL1        0.0000
      6 C          -1.5542   -0.0119   -0.1821 C.ar    1  UNL1        0.0000
      7 C          -0.9441   -0.4145   -1.4312 C.ar    1  UNL1        0.0000
      8 C          -1.7098   -0.8550   -2.5419 C.ar    1  UNL1        0.0000
      9 C          -1.1665   -1.2014   -3.7791 C.ar    1  UNL1        0.0000
     10 C           0.1964   -1.1542   -3.9485 C.ar    1  UNL1        0.0000
     11 C           0.9976   -0.8124   -2.8627 C.ar    1  UNL1        0.0000
     12 C           0.4740   -0.4727   -1.5819 C.ar    1  UNL1        0.0000
     13 C           1.3269   -0.1975   -0.4669 C.ar    1  UNL1        0.0000
     14 C           2.7476   -0.1620   -0.5586 C.ar    1  UNL1        0.0000
     15 C           3.5451    0.1338    0.5406 C.ar    1  UNL1        0.0000
     16 N           3.0082    0.4258    1.7310 N.ar    1  UNL1        0.0000
     17 C           1.6584    0.3888    1.8170 C.ar    1  UNL1        0.0000
     18 C           0.7519    0.0376    0.7969 C.ar    1  UNL1        0.0000
     19 C          -0.6839    0.0056    0.9629 C.ar    1  UNL1        0.0000
     20 C          -1.4086    0.0239    2.2188 C.ar    1  UNL1        0.0000
     21 C          -0.8873   -0.3359    3.4447 C.ar    1  UNL1        0.0000
     22 S          -2.0128   -0.1614    4.7296 S.2     1  UNL1        0.0000
     23 C          -3.2614    0.2912    3.6514 C.ar    1  UNL1        0.0000
     24 C          -2.8232    0.2927    2.3480 C.ar    1  UNL1        0.0000
     25 C           5.0078    0.1814    0.4602 C.ar    1  UNL1        0.0000
     26 C           5.8386    0.3575   -0.6352 C.ar    1  UNL1        0.0000
     27 N           7.1992    0.3370   -0.3902 N.ar    1  UNL1        0.0000
     28 C           7.3966    0.1568    0.8959 C.ar    1  UNL1        0.0000
     29 S           5.9947   -0.0067    1.8630 S.2     1  UNL1        0.0000
     30 H          -4.7404   -0.0672   -2.2115 H       1  UNL1        0.0000
     31 H          -3.8442    2.2698   -1.9451 H       1  UNL1        0.0000
     32 H          -6.5089    1.6365   -0.1608 H       1  UNL1        0.0000
     33 H          -5.6033    1.1041    2.1966 H       1  UNL1        0.0000
     34 H          -2.7758   -1.0224   -2.4460 H       1  UNL1        0.0000
     35 H          -1.8133   -1.5255   -4.5899 H       1  UNL1        0.0000
     36 H           0.6450   -1.4189   -4.9019 H       1  UNL1        0.0000
     37 H           2.0668   -0.8431   -3.0490 H       1  UNL1        0.0000
     38 H           3.2473   -0.3678   -1.4967 H       1  UNL1        0.0000
     39 H           1.3154    0.7355    2.7865 H       1  UNL1        0.0000
     40 H           0.0884   -0.7232    3.6971 H       1  UNL1        0.0000
     41 H          -4.2487    0.4930    4.0420 H       1  UNL1        0.0000
     42 H           5.5055    0.5131   -1.6540 H       1  UNL1        0.0000
     43 H           8.3880    0.1116    1.3272 H       1  UNL1        0.0000
@<TRIPOS>BOND
     1     1     2    1
     2     2     3    2
     3     3     4    1
     4     4     5   ar
     5     5     6   ar
     6     6     7   ar
     7     7     8   ar
     8     8     9   ar
     9     9    10   ar
    10    10    11   ar
    11    11    12   ar
    12    12    13   ar
    13    13    14   ar
    14    14    15   ar
    15    15    16   ar
    16    16    17   ar
    17    17    18   ar
    18    18    19   ar
    19    19    20   ar
    20    20    21   ar
    21    21    22   ar
    22    22    23   ar
    23    23    24   ar
    24    15    25    1
    25    25    26   ar
    26    26    27   ar
    27    27    28   ar
    28    28    29   ar
    29     5     1    1
    30    19     6   ar
    31    24    20   ar
    32    29    25   ar
    33    24     4   ar
    34    12     7   ar
    35    18    13   ar
    36     1    30    1
    37     1    31    1
    38     2    32    1
    39     3    33    1
    40     8    34    1
    41     9    35    1
    42    10    36    1
    43    11    37    1
    44    14    38    1
    45    17    39    1
    46    21    40    1
    47    23    41    1
    48    26    42    1
    49    28    43    1
