@<TRIPOS>MOLECULE
*****
 25 27 0 0 0
SMALL
GASTEIGER

@<TRIPOS>ATOM
      1 C           0.0167    2.7045   -0.0030 C.3     1  UNL1        0.0124
      2 N           0.0080    1.2574   -0.0043 N.ar    1  UNL1       -0.3429
      3 C          -1.1333    0.4815   -0.0650 C.ar    1  UNL1        0.0498
      4 C          -2.4928    0.8340   -0.1235 C.ar    1  UNL1       -0.0376
      5 C          -3.4400   -0.1927   -0.1851 C.ar    1  UNL1       -0.0598
      6 C          -3.0490   -1.5272   -0.1867 C.ar    1  UNL1       -0.0611
      7 C          -1.6946   -1.8688   -0.1233 C.ar    1  UNL1       -0.0520
      8 C          -0.7180   -0.8515   -0.0593 C.ar    1  UNL1        0.0076
      9 C           0.7096   -0.8602    0.0242 C.ar    1  UNL1        0.0076
     10 C           1.6746   -1.8894    0.0738 C.ar    1  UNL1       -0.0520
     11 C           3.0312   -1.5644    0.1691 C.ar    1  UNL1       -0.0611
     12 C           3.4355   -0.2348    0.2173 C.ar    1  UNL1       -0.0598
     13 C           2.5002    0.8034    0.1687 C.ar    1  UNL1       -0.0376
     14 C           1.1390    0.4676    0.0680 C.ar    1  UNL1        0.0498
     15 H          -0.0428    3.0426    1.0344 H       1  UNL1        0.0456
     16 H           0.9341    3.0671   -0.4723 H       1  UNL1        0.0456
     17 H          -0.8345    3.0777   -0.5771 H       1  UNL1        0.0456
     18 H          -2.8132    1.8706   -0.1210 H       1  UNL1        0.0638
     19 H          -4.4973    0.0575   -0.2321 H       1  UNL1        0.0618
     20 H          -3.7994   -2.3121   -0.2350 H       1  UNL1        0.0618
     21 H          -1.3969   -2.9130   -0.1205 H       1  UNL1        0.0624
     22 H           1.3658   -2.9299    0.0412 H       1  UNL1        0.0624
     23 H           3.7724   -2.3585    0.2081 H       1  UNL1        0.0618
     24 H           4.4941    0.0025    0.2941 H       1  UNL1        0.0618
     25 H           2.8307    1.8360    0.2094 H       1  UNL1        0.0638
@<TRIPOS>BOND
     1     1     2    1
     2     2     3   ar
     3     3     4   ar
     4     4     5   ar
     5     5     6   ar
     6     6     7   ar
     7     7     8   ar
     8     8     9   ar
     9     9    10   ar
    10    10    11   ar
    11    11    12   ar
    12    12    13   ar
    13    13    14   ar
    14    14     2   ar
    15     8     3   ar
    16    14     9   ar
    17     1    15    1
    18     1    16    1
    19     1    17    1
    20     4    18    1
    21     5    19    1
    22     6    20    1
    23     7    21    1
    24    10    22    1
    25    11    23    1
    26    12    24    1
    27    13    25    1
