@<TRIPOS>MOLECULE
*****
 48 53 0 0 0
SMALL
GASTEIGER

@<TRIPOS>ATOM
      1 C           4.0858   -2.5564    1.5111 C.3     1  UNL1        0.0059
      2 N           3.7309   -1.4524    0.6207 N.pl3   1  UNL1       -0.3003
      3 C           4.7559   -0.5563    0.2133 C.ar    1  UNL1        0.0554
      4 C           6.1258   -0.8450    0.3747 C.ar    1  UNL1       -0.0385
      5 C           7.1137    0.0762    0.0236 C.ar    1  UNL1       -0.0599
      6 C           6.7521    1.3086   -0.4972 C.ar    1  UNL1       -0.0599
      7 C           5.4044    1.6050   -0.7045 C.ar    1  UNL1       -0.0385
      8 C           4.3889    0.6774   -0.3991 C.ar    1  UNL1        0.0554
      9 N           3.0173    0.9343   -0.6558 N.pl3   1  UNL1       -0.3003
     10 C           2.6626    1.9973   -1.5971 C.3     1  UNL1        0.0059
     11 C           1.9935    0.0371   -0.2471 C.ar    1  UNL1        0.0560
     12 C           0.6219    0.3323   -0.4057 C.ar    1  UNL1       -0.0293
     13 C          -0.4009   -0.5694   -0.0585 C.ar    1  UNL1        0.0023
     14 C          -1.8226   -0.2093   -0.2494 C.ar    1  UNL1        0.0730
     15 C          -2.8231   -0.6417    0.6236 C.ar    1  UNL1       -0.0117
     16 C          -4.1230   -0.2283    0.3277 C.ar    1  UNL1        0.0510
     17 N          -5.3095   -0.4735    0.9774 N.ar    1  UNL1       -0.3540
     18 C          -6.3560    0.1355    0.3264 C.ar    1  UNL1        0.0504
     19 C          -7.7178    0.1558    0.6201 C.ar    1  UNL1       -0.0196
     20 C          -8.4969    0.8833   -0.2666 C.ar    1  UNL1        0.0295
     21 N          -8.0286    1.5425   -1.3489 N.ar    1  UNL1       -0.2625
     22 C          -6.6989    1.5079   -1.6133 C.ar    1  UNL1        0.0373
     23 C          -5.8242    0.8000   -0.7790 C.ar    1  UNL1        0.0269
     24 C          -4.4127    0.5713   -0.7750 C.ar    1  UNL1        0.0270
     25 C          -3.3548    0.9675   -1.5980 C.ar    1  UNL1        0.0380
     26 N          -2.0838    0.5801   -1.3244 N.ar    1  UNL1       -0.2542
     27 C          -0.0086   -1.8106    0.4521 C.ar    1  UNL1       -0.0507
     28 C           1.3420   -2.1149    0.6591 C.ar    1  UNL1       -0.0379
     29 C           2.3604   -1.1936    0.3617 C.ar    1  UNL1        0.0554
     30 H           3.2895   -2.8073    2.2200 H       1  UNL1        0.0432
     31 H           4.9347   -2.3167    2.1612 H       1  UNL1        0.0432
     32 H           4.3293   -3.4504    0.9274 H       1  UNL1        0.0432
     33 H           6.4567   -1.8005    0.7677 H       1  UNL1        0.0637
     34 H           8.1621   -0.1699    0.1675 H       1  UNL1        0.0618
     35 H           7.5144    2.0400   -0.7511 H       1  UNL1        0.0618
     36 H           5.1667    2.5875   -1.0987 H       1  UNL1        0.0637
     37 H           1.8335    1.7145   -2.2560 H       1  UNL1        0.0432
     38 H           3.4699    2.2398   -2.2963 H       1  UNL1        0.0432
     39 H           2.3878    2.9072   -1.0532 H       1  UNL1        0.0432
     40 H           0.3172    1.2996   -0.7977 H       1  UNL1        0.0643
     41 H          -2.6058   -1.2482    1.4938 H       1  UNL1        0.0660
     42 H          -5.4006   -1.0264    1.8177 H       1  UNL1        0.1659
     43 H          -8.1452   -0.3540    1.4735 H       1  UNL1        0.0653
     44 H          -9.5718    0.9575   -0.1205 H       1  UNL1        0.0830
     45 H          -6.3707    2.0517   -2.4917 H       1  UNL1        0.0836
     46 H          -3.4863    1.5902   -2.4754 H       1  UNL1        0.0836
     47 H          -0.7483   -2.5718    0.6881 H       1  UNL1        0.0625
     48 H           1.5732   -3.1035    1.0417 H       1  UNL1        0.0637
@<TRIPOS>BOND
     1     1     2    1
     2     2     3    1
     3     3     4   ar
     4     4     5   ar
     5     5     6   ar
     6     6     7   ar
     7     7     8   ar
     8     8     9    1
     9     9    10    1
    10     9    11    1
    11    11    12   ar
    12    12    13   ar
    13    13    14    1
    14    14    15   ar
    15    15    16   ar
    16    16    17   ar
    17    17    18   ar
    18    18    19   ar
    19    19    20   ar
    20    20    21   ar
    21    21    22   ar
    22    22    23   ar
    23    23    24   ar
    24    24    25   ar
    25    25    26   ar
    26    13    27   ar
    27    27    28   ar
    28    28    29   ar
    29    29     2    1
    30     8     3   ar
    31    29    11   ar
    32    26    14   ar
    33    24    16   ar
    34    23    18   ar
    35     1    30    1
    36     1    31    1
    37     1    32    1
    38     4    33    1
    39     5    34    1
    40     6    35    1
    41     7    36    1
    42    10    37    1
    43    10    38    1
    44    10    39    1
    45    12    40    1
    46    15    41    1
    47    17    42    1
    48    19    43    1
    49    20    44    1
    50    22    45    1
    51    25    46    1
    52    27    47    1
    53    28    48    1
