@<TRIPOS>MOLECULE
*****
 43 47 0 0 0
SMALL
GASTEIGER

@<TRIPOS>ATOM
      1 C           3.0965    2.9442   -0.4429 C.3     1  UNL1        0.0059
      2 N           2.7223    1.5489   -0.2367 N.pl3   1  UNL1       -0.3003
      3 C           3.7436    0.5731   -0.0973 C.ar    1  UNL1        0.0554
      4 C           5.0928    0.8323   -0.4052 C.ar    1  UNL1       -0.0385
      5 C           6.0728   -0.1521   -0.2689 C.ar    1  UNL1       -0.0599
      6 C           5.7212   -1.4220    0.1640 C.ar    1  UNL1       -0.0599
      7 C           4.3886   -1.7108    0.4620 C.ar    1  UNL1       -0.0385
      8 C           3.3822   -0.7329    0.3483 C.ar    1  UNL1        0.0554
      9 N           2.0177   -0.9994    0.6315 N.pl3   1  UNL1       -0.3003
     10 C           1.6632   -2.2265    1.3378 C.3     1  UNL1        0.0059
     11 C           0.9883   -0.1147    0.2165 C.ar    1  UNL1        0.0560
     12 C          -0.3720   -0.4844    0.2001 C.ar    1  UNL1       -0.0294
     13 C          -1.3765    0.3997   -0.2157 C.ar    1  UNL1        0.0002
     14 C          -2.7782   -0.0194   -0.2121 C.ar    1  UNL1        0.0476
     15 C          -3.3579   -1.2342   -0.5374 C.ar    1  UNL1       -0.0272
     16 C          -4.7642   -1.1297   -0.3533 C.ar    1  UNL1        0.0183
     17 C          -5.8443   -2.0039   -0.5227 C.ar    1  UNL1        0.0367
     18 N          -7.1093   -1.5969   -0.2496 N.ar    1  UNL1       -0.2625
     19 C          -7.3066   -0.3334    0.1879 C.ar    1  UNL1        0.0295
     20 C          -6.3065    0.6072    0.3867 C.ar    1  UNL1       -0.0196
     21 C          -5.0181    0.1635    0.0976 C.ar    1  UNL1        0.0498
     22 N          -3.8074    0.8104    0.1771 N.ar    1  UNL1       -0.3541
     23 C          -1.0101    1.6734   -0.6474 C.ar    1  UNL1       -0.0508
     24 C           0.3336    2.0588   -0.6599 C.ar    1  UNL1       -0.0379
     25 C           1.3504    1.1906   -0.2260 C.ar    1  UNL1        0.0554
     26 H           3.2156    3.1576   -1.5105 H       1  UNL1        0.0432
     27 H           2.3590    3.6382   -0.0240 H       1  UNL1        0.0432
     28 H           4.0253    3.2059    0.0764 H       1  UNL1        0.0432
     29 H           5.4084    1.7990   -0.7827 H       1  UNL1        0.0637
     30 H           7.1067    0.0731   -0.5162 H       1  UNL1        0.0618
     31 H           6.4783   -2.1960    0.2571 H       1  UNL1        0.0618
     32 H           4.1543   -2.7273    0.7599 H       1  UNL1        0.0637
     33 H           0.7734   -2.1012    1.9652 H       1  UNL1        0.0432
     34 H           1.4841   -3.0413    0.6282 H       1  UNL1        0.0432
     35 H           2.4396   -2.5383    2.0455 H       1  UNL1        0.0432
     36 H          -0.6690   -1.4831    0.5030 H       1  UNL1        0.0643
     37 H          -2.8246   -2.1096   -0.8856 H       1  UNL1        0.0645
     38 H          -5.7298   -3.0239   -0.8702 H       1  UNL1        0.0836
     39 H          -8.3451   -0.0799    0.3861 H       1  UNL1        0.0830
     40 H          -6.5206    1.6071    0.7395 H       1  UNL1        0.0653
     41 H          -3.6862    1.7596    0.4998 H       1  UNL1        0.1659
     42 H          -1.7557    2.3730   -1.0158 H       1  UNL1        0.0625
     43 H           0.5647    3.0451   -1.0483 H       1  UNL1        0.0637
@<TRIPOS>BOND
     1     1     2    1
     2     2     3    1
     3     3     4   ar
     4     4     5   ar
     5     5     6   ar
     6     6     7   ar
     7     7     8   ar
     8     8     9    1
     9     9    10    1
    10     9    11    1
    11    11    12   ar
    12    12    13   ar
    13    13    14    1
    14    14    15   ar
    15    15    16   ar
    16    16    17   ar
    17    17    18   ar
    18    18    19   ar
    19    19    20   ar
    20    20    21   ar
    21    21    22   ar
    22    13    23   ar
    23    23    24   ar
    24    24    25   ar
    25    25     2    1
    26     8     3   ar
    27    25    11   ar
    28    22    14   ar
    29    21    16   ar
    30     1    26    1
    31     1    27    1
    32     1    28    1
    33     4    29    1
    34     5    30    1
    35     6    31    1
    36     7    32    1
    37    10    33    1
    38    10    34    1
    39    10    35    1
    40    12    36    1
    41    15    37    1
    42    17    38    1
    43    19    39    1
    44    20    40    1
    45    22    41    1
    46    23    42    1
    47    24    43    1
