@<TRIPOS>MOLECULE
*****
 48 52 0 0 0
SMALL
GASTEIGER

@<TRIPOS>ATOM
      1 C          -4.4313   -2.2128   -1.4388 C.3     1  UNL1        0.0059
      2 N          -3.9199   -1.1746   -0.5472 N.pl3   1  UNL1       -0.3003
      3 C          -4.8336   -0.2246   -0.0148 C.ar    1  UNL1        0.0554
      4 C          -6.2254   -0.4408   -0.0020 C.ar    1  UNL1       -0.0385
      5 C          -7.1109    0.5255    0.4860 C.ar    1  UNL1       -0.0599
      6 C          -6.6197    1.7078    1.0165 C.ar    1  UNL1       -0.0599
      7 C          -5.2423    1.9270    1.0611 C.ar    1  UNL1       -0.0385
      8 C          -4.3255    0.9878    0.5391 C.ar    1  UNL1        0.0554
      9 N          -2.9201    1.2011    0.5425 N.pl3   1  UNL1       -0.3003
     10 C          -2.4154    2.5306    0.8680 C.3     1  UNL1        0.0059
     11 C          -2.0041    0.1938    0.1529 C.ar    1  UNL1        0.0560
     12 C          -0.6057    0.3365    0.2960 C.ar    1  UNL1       -0.0308
     13 C           0.2919   -0.6481   -0.1498 C.ar    1  UNL1       -0.0146
     14 C           1.7404   -0.4513   -0.0653 C.ar    1  UNL1        0.0003
     15 C           2.4194   -0.4189    1.1557 C.ar    1  UNL1       -0.0505
     16 C           3.8102   -0.2910    1.1754 C.ar    1  UNL1       -0.0336
     17 C           4.5056   -0.1606   -0.0299 C.ar    1  UNL1        0.0891
     18 C           5.9748   -0.0230   -0.0830 C.ar    1  UNL1        0.0891
     19 C           6.5970    0.7792   -1.0428 C.ar    1  UNL1       -0.0342
     20 C           7.9859    0.8410   -1.0927 C.ar    1  UNL1       -0.0583
     21 C           8.7255    0.0672   -0.2020 C.ar    1  UNL1       -0.0436
     22 C           8.0409   -0.6694    0.7482 C.ar    1  UNL1        0.0283
     23 N           6.6912   -0.7113    0.8443 N.ar    1  UNL1       -0.2534
     24 N           3.8592   -0.1302   -1.2269 N.ar    1  UNL1       -0.2528
     25 C           2.5157   -0.3014   -1.2168 C.ar    1  UNL1        0.0360
     26 C          -0.2295   -1.8293   -0.6870 C.ar    1  UNL1       -0.0521
     27 C          -1.6095   -2.0177   -0.7901 C.ar    1  UNL1       -0.0380
     28 C          -2.5165   -1.0154   -0.4070 C.ar    1  UNL1        0.0554
     29 H          -5.3346   -1.9042   -1.9800 H       1  UNL1        0.0432
     30 H          -4.6555   -3.1239   -0.8756 H       1  UNL1        0.0432
     31 H          -3.7286   -2.4574   -2.2411 H       1  UNL1        0.0432
     32 H          -6.6510   -1.3659   -0.3736 H       1  UNL1        0.0637
     33 H          -8.1805    0.3473    0.4551 H       1  UNL1        0.0618
     34 H          -7.3045    2.4682    1.3956 H       1  UNL1        0.0618
     35 H          -4.9090    2.8540    1.5203 H       1  UNL1        0.0637
     36 H          -1.4866    2.7734    0.3468 H       1  UNL1        0.0432
     37 H          -3.0986    3.3262    0.5488 H       1  UNL1        0.0432
     38 H          -2.2435    2.6190    1.9433 H       1  UNL1        0.0432
     39 H          -0.1813    1.2292    0.7555 H       1  UNL1        0.0643
     40 H           1.8725   -0.5051    2.0957 H       1  UNL1        0.0625
     41 H           4.3455   -0.2979    2.1207 H       1  UNL1        0.0640
     42 H           5.9995    1.3531   -1.7422 H       1  UNL1        0.0639
     43 H           8.4817    1.4600   -1.8411 H       1  UNL1        0.0619
     44 H           9.8096    0.0564   -0.2368 H       1  UNL1        0.0633
     45 H           8.5805   -1.2921    1.4598 H       1  UNL1        0.0830
     46 H           2.0569   -0.3141   -2.2051 H       1  UNL1        0.0836
     47 H           0.4345   -2.6253   -1.0226 H       1  UNL1        0.0624
     48 H          -1.9554   -2.9781   -1.1671 H       1  UNL1        0.0637
@<TRIPOS>BOND
     1     1     2    1
     2     2     3    1
     3     3     4   ar
     4     4     5   ar
     5     5     6   ar
     6     6     7   ar
     7     7     8   ar
     8     8     9    1
     9     9    10    1
    10     9    11    1
    11    11    12   ar
    12    12    13   ar
    13    13    14    1
    14    14    15   ar
    15    15    16   ar
    16    16    17   ar
    17    17    18    1
    18    18    19   ar
    19    19    20   ar
    20    20    21   ar
    21    21    22   ar
    22    22    23   ar
    23    17    24   ar
    24    24    25   ar
    25    13    26   ar
    26    26    27   ar
    27    27    28   ar
    28    28     2    1
    29     8     3   ar
    30    28    11   ar
    31    25    14   ar
    32    23    18   ar
    33     1    29    1
    34     1    30    1
    35     1    31    1
    36     4    32    1
    37     5    33    1
    38     6    34    1
    39     7    35    1
    40    10    36    1
    41    10    37    1
    42    10    38    1
    43    12    39    1
    44    15    40    1
    45    16    41    1
    46    19    42    1
    47    20    43    1
    48    21    44    1
    49    22    45    1
    50    25    46    1
    51    26    47    1
    52    27    48    1
