@<TRIPOS>MOLECULE
*****
 48 52 0 0 0
SMALL
GASTEIGER

@<TRIPOS>ATOM
      1 C          -4.1777   -2.9555    0.3418 C.3     1  UNL1        0.0059
      2 N          -3.7610   -1.5811    0.0651 N.pl3   1  UNL1       -0.3003
      3 C          -4.7370   -0.5513    0.1301 C.ar    1  UNL1        0.0554
      4 C          -6.1212   -0.8161    0.1306 C.ar    1  UNL1       -0.0385
      5 C          -7.0618    0.2068    0.2582 C.ar    1  UNL1       -0.0599
      6 C          -6.6374    1.5197    0.3876 C.ar    1  UNL1       -0.0599
      7 C          -5.2739    1.8143    0.3488 C.ar    1  UNL1       -0.0385
      8 C          -4.3045    0.8058    0.1787 C.ar    1  UNL1        0.0554
      9 N          -2.9167    1.0881    0.0735 N.pl3   1  UNL1       -0.3003
     10 C          -2.5018    2.4621   -0.2077 C.3     1  UNL1        0.0059
     11 C          -1.9412    0.0571    0.0089 C.ar    1  UNL1        0.0559
     12 C          -0.5550    0.3236    0.0094 C.ar    1  UNL1       -0.0308
     13 C           0.4095   -0.6901   -0.1162 C.ar    1  UNL1       -0.0160
     14 C           1.8464   -0.3748   -0.1273 C.ar    1  UNL1       -0.0178
     15 C           2.7277   -0.9797    0.7773 C.ar    1  UNL1       -0.0534
     16 C           4.0960   -0.6789    0.7627 C.ar    1  UNL1       -0.0519
     17 C           4.6406    0.2399   -0.1515 C.ar    1  UNL1        0.0019
     18 C           6.0858    0.5437   -0.1432 C.ar    1  UNL1        0.0890
     19 C           6.6233    1.7649   -0.5535 C.ar    1  UNL1        0.0535
     20 N           7.9531    2.0437   -0.5499 N.ar    1  UNL1       -0.2596
     21 C           8.7453    1.0450   -0.1083 C.ar    1  UNL1        0.0457
     22 C           8.2347   -0.1690    0.3118 C.ar    1  UNL1        0.0464
     23 N           6.9091   -0.4426    0.3068 N.ar    1  UNL1       -0.2520
     24 C           3.7512    0.8349   -1.0626 C.ar    1  UNL1       -0.0519
     25 C           2.3812    0.5356   -1.0488 C.ar    1  UNL1       -0.0534
     26 C          -0.0395   -2.0054   -0.2412 C.ar    1  UNL1       -0.0522
     27 C          -1.4047   -2.3028   -0.2038 C.ar    1  UNL1       -0.0380
     28 C          -2.3742   -1.2977   -0.0378 C.ar    1  UNL1        0.0554
     29 H          -5.0455   -3.0092    1.0085 H       1  UNL1        0.0432
     30 H          -4.4190   -3.4731   -0.5926 H       1  UNL1        0.0432
     31 H          -3.4148   -3.5323    0.8760 H       1  UNL1        0.0432
     32 H          -6.5003   -1.8266    0.0196 H       1  UNL1        0.0637
     33 H          -8.1226   -0.0281    0.2652 H       1  UNL1        0.0618
     34 H          -7.3629    2.3191    0.5106 H       1  UNL1        0.0618
     35 H          -4.9884    2.8542    0.4683 H       1  UNL1        0.0637
     36 H          -3.2665    3.0374   -0.7410 H       1  UNL1        0.0432
     37 H          -1.6363    2.5140   -0.8778 H       1  UNL1        0.0432
     38 H          -2.2573    2.9821    0.7245 H       1  UNL1        0.0432
     39 H          -0.1970    1.3411    0.1361 H       1  UNL1        0.0643
     40 H           2.3555   -1.6891    1.5141 H       1  UNL1        0.0624
     41 H           4.7448   -1.1726    1.4857 H       1  UNL1        0.0624
     42 H           5.9956    2.5820   -0.8915 H       1  UNL1        0.0851
     43 H           9.8099    1.2477   -0.0987 H       1  UNL1        0.0845
     44 H           8.8812   -0.9633    0.6669 H       1  UNL1        0.0845
     45 H           4.1089    1.5285   -1.8205 H       1  UNL1        0.0624
     46 H           1.7328    1.0096   -1.7838 H       1  UNL1        0.0624
     47 H           0.6724   -2.8178   -0.3730 H       1  UNL1        0.0624
     48 H          -1.6870   -3.3435   -0.3239 H       1  UNL1        0.0637
@<TRIPOS>BOND
     1     1     2    1
     2     2     3    1
     3     3     4   ar
     4     4     5   ar
     5     5     6   ar
     6     6     7   ar
     7     7     8   ar
     8     8     9    1
     9     9    10    1
    10     9    11    1
    11    11    12   ar
    12    12    13   ar
    13    13    14    1
    14    14    15   ar
    15    15    16   ar
    16    16    17   ar
    17    17    18    1
    18    18    19   ar
    19    19    20   ar
    20    20    21   ar
    21    21    22   ar
    22    22    23   ar
    23    17    24   ar
    24    24    25   ar
    25    13    26   ar
    26    26    27   ar
    27    27    28   ar
    28    28     2    1
    29     8     3   ar
    30    28    11   ar
    31    25    14   ar
    32    23    18   ar
    33     1    29    1
    34     1    30    1
    35     1    31    1
    36     4    32    1
    37     5    33    1
    38     6    34    1
    39     7    35    1
    40    10    36    1
    41    10    37    1
    42    10    38    1
    43    12    39    1
    44    15    40    1
    45    16    41    1
    46    19    42    1
    47    21    43    1
    48    22    44    1
    49    24    45    1
    50    25    46    1
    51    26    47    1
    52    27    48    1
