@<TRIPOS>MOLECULE
*****
 42 46 0 0 0
SMALL
GASTEIGER

@<TRIPOS>ATOM
      1 C          -2.7955    3.0751    0.1076 C.3     1  UNL1        0.0059
      2 N          -2.4423    1.6625    0.0131 N.pl3   1  UNL1       -0.3003
      3 C          -3.4734    0.7007   -0.1485 C.ar    1  UNL1        0.0554
      4 C          -4.7960    1.0498   -0.4818 C.ar    1  UNL1       -0.0385
      5 C          -5.7858    0.0795   -0.6462 C.ar    1  UNL1       -0.0599
      6 C          -5.4696   -1.2625   -0.4955 C.ar    1  UNL1       -0.0599
      7 C          -4.1629   -1.6378   -0.1797 C.ar    1  UNL1       -0.0385
      8 C          -3.1485   -0.6796    0.0071 C.ar    1  UNL1        0.0554
      9 N          -1.8088   -1.0302    0.3164 N.pl3   1  UNL1       -0.3003
     10 C          -1.5088   -2.3949    0.7380 C.3     1  UNL1        0.0059
     11 C          -0.7501   -0.0933    0.1897 C.ar    1  UNL1        0.0559
     12 C           0.6074   -0.4751    0.1834 C.ar    1  UNL1       -0.0308
     13 C           1.6502    0.4570    0.0483 C.ar    1  UNL1       -0.0159
     14 C           3.0583    0.0259    0.0477 C.ar    1  UNL1       -0.0156
     15 C           3.9759    0.5722    0.9676 C.ar    1  UNL1       -0.0519
     16 C           5.3248    0.1891    1.0046 C.ar    1  UNL1       -0.0342
     17 C           5.7168   -0.7712    0.0747 C.ar    1  UNL1        0.0858
     18 N           6.9064   -1.3857   -0.1973 N.ar    1  UNL1       -0.2571
     19 N           6.7987   -2.2644   -1.2071 N.ar    1  UNL1       -0.0673
     20 N           5.5367   -2.2432   -1.6189 N.ar    1  UNL1       -0.1297
     21 C           4.8533   -1.3385   -0.8505 C.ar    1  UNL1        0.1130
     22 C           3.5087   -0.9424   -0.8728 C.ar    1  UNL1       -0.0247
     23 C           1.3100    1.8037   -0.0991 C.ar    1  UNL1       -0.0522
     24 C          -0.0279    2.2089   -0.1138 C.ar    1  UNL1       -0.0380
     25 C          -1.0757    1.2848    0.0358 C.ar    1  UNL1        0.0554
     26 H          -2.0894    3.6392    0.7274 H       1  UNL1        0.0432
     27 H          -3.7599    3.2295    0.6048 H       1  UNL1        0.0432
     28 H          -2.8337    3.5303   -0.8878 H       1  UNL1        0.0432
     29 H          -5.0809    2.0834   -0.6466 H       1  UNL1        0.0637
     30 H          -6.7983    0.3756   -0.9068 H       1  UNL1        0.0618
     31 H          -6.2332   -2.0224   -0.6377 H       1  UNL1        0.0618
     32 H          -3.9535   -2.6999   -0.1098 H       1  UNL1        0.0637
     33 H          -2.3352   -2.8490    1.2964 H       1  UNL1        0.0432
     34 H          -0.6671   -2.4364    1.4387 H       1  UNL1        0.0432
     35 H          -1.2798   -3.0244   -0.1285 H       1  UNL1        0.0432
     36 H           0.8780   -1.5232    0.2700 H       1  UNL1        0.0643
     37 H           3.6314    1.3129    1.6898 H       1  UNL1        0.0624
     38 H           6.0142    0.6190    1.7229 H       1  UNL1        0.0639
     39 H           7.8070   -1.2630    0.2479 H       1  UNL1        0.1907
     40 H           2.8374   -1.3797   -1.6052 H       1  UNL1        0.0646
     41 H           2.0865    2.5542   -0.2323 H       1  UNL1        0.0624
     42 H          -0.2256    3.2634   -0.2744 H       1  UNL1        0.0637
@<TRIPOS>BOND
     1     1     2    1
     2     2     3    1
     3     3     4   ar
     4     4     5   ar
     5     5     6   ar
     6     6     7   ar
     7     7     8   ar
     8     8     9    1
     9     9    10    1
    10     9    11    1
    11    11    12   ar
    12    12    13   ar
    13    13    14    1
    14    14    15   ar
    15    15    16   ar
    16    16    17   ar
    17    17    18   ar
    18    18    19   ar
    19    19    20   ar
    20    20    21   ar
    21    21    22   ar
    22    13    23   ar
    23    23    24   ar
    24    24    25   ar
    25    25     2    1
    26     8     3   ar
    27    25    11   ar
    28    22    14   ar
    29    21    17   ar
    30     1    26    1
    31     1    27    1
    32     1    28    1
    33     4    29    1
    34     5    30    1
    35     6    31    1
    36     7    32    1
    37    10    33    1
    38    10    34    1
    39    10    35    1
    40    12    36    1
    41    15    37    1
    42    16    38    1
    43    18    39    1
    44    22    40    1
    45    23    41    1
    46    24    42    1
