@<TRIPOS>MOLECULE
*****
 46 50 0 0 0
SMALL
GASTEIGER

@<TRIPOS>ATOM
      1 C           3.7670    1.2539    2.4131 C.3     1  UNL1        0.0059
      2 N           3.2704    0.6726    1.1701 N.pl3   1  UNL1       -0.3003
      3 C           4.1879    0.3809    0.1277 C.ar    1  UNL1        0.0554
      4 C           5.5084    0.8690    0.1163 C.ar    1  UNL1       -0.0385
      5 C           6.3841    0.5749   -0.9301 C.ar    1  UNL1       -0.0599
      6 C           5.9521   -0.2014   -1.9953 C.ar    1  UNL1       -0.0599
      7 C           4.6434   -0.6860   -2.0168 C.ar    1  UNL1       -0.0385
      8 C           3.7439   -0.4179   -0.9676 C.ar    1  UNL1        0.0554
      9 N           2.4043   -0.8859   -0.9664 N.pl3   1  UNL1       -0.3003
     10 C           2.0097   -1.9164   -1.9217 C.3     1  UNL1        0.0059
     11 C           1.4353   -0.3571   -0.0745 C.ar    1  UNL1        0.0559
     12 C           0.0513   -0.5659   -0.2438 C.ar    1  UNL1       -0.0308
     13 C          -0.9027   -0.0267    0.6353 C.ar    1  UNL1       -0.0159
     14 C          -2.3397   -0.2644    0.4293 C.ar    1  UNL1       -0.0158
     15 C          -2.8528   -1.5730    0.3899 C.ar    1  UNL1       -0.0532
     16 C          -4.2170   -1.8049    0.2021 C.ar    1  UNL1       -0.0484
     17 C          -5.0828   -0.7214    0.0445 C.ar    1  UNL1        0.0450
     18 C          -6.5385   -0.9444   -0.1545 C.ar    1  UNL1        0.1894
     19 O          -7.0264   -2.0686   -0.1790 O.2     1  UNL1       -0.2872
     20 C          -7.3975    0.2520   -0.3359 C.ar    1  UNL1        0.0017
     21 C          -6.8230    1.4585   -0.2866 C.ar    1  UNL1        0.0058
     22 N          -5.4905    1.6737   -0.0615 N.ar    1  UNL1       -0.3604
     23 C          -4.5989    0.5972    0.0620 C.ar    1  UNL1        0.0507
     24 C          -3.2322    0.8130    0.2690 C.ar    1  UNL1       -0.0300
     25 C          -0.4472    0.7525    1.7011 C.ar    1  UNL1       -0.0522
     26 C           0.9183    0.9880    1.8851 C.ar    1  UNL1       -0.0380
     27 C           1.8797    0.4411    1.0184 C.ar    1  UNL1        0.0554
     28 H           3.7748    2.3473    2.3508 H       1  UNL1        0.0432
     29 H           3.1682    0.9536    3.2804 H       1  UNL1        0.0432
     30 H           4.7767    0.9064    2.6597 H       1  UNL1        0.0432
     31 H           5.8781    1.5105    0.9092 H       1  UNL1        0.0637
     32 H           7.3976    0.9664   -0.9160 H       1  UNL1        0.0618
     33 H           6.6257   -0.4206   -2.8193 H       1  UNL1        0.0618
     34 H           4.3381   -1.2567   -2.8875 H       1  UNL1        0.0637
     35 H           1.6583   -1.4624   -2.8544 H       1  UNL1        0.0432
     36 H           1.2224   -2.5684   -1.5268 H       1  UNL1        0.0432
     37 H           2.8296   -2.6064   -2.1513 H       1  UNL1        0.0432
     38 H          -0.3140   -1.1301   -1.0969 H       1  UNL1        0.0643
     39 H          -2.1878   -2.4250    0.5227 H       1  UNL1        0.0624
     40 H          -4.6008   -2.8222    0.1838 H       1  UNL1        0.0625
     41 H          -8.4529    0.0951   -0.5079 H       1  UNL1        0.0670
     42 H          -7.4060    2.3647   -0.4248 H       1  UNL1        0.0808
     43 H          -5.1171    2.6060   -0.1971 H       1  UNL1        0.1653
     44 H          -2.8487    1.8306    0.2963 H       1  UNL1        0.0644
     45 H          -1.1543    1.1887    2.4038 H       1  UNL1        0.0624
     46 H           1.2054    1.6288    2.7120 H       1  UNL1        0.0637
@<TRIPOS>BOND
     1     1     2    1
     2     2     3    1
     3     3     4   ar
     4     4     5   ar
     5     5     6   ar
     6     6     7   ar
     7     7     8   ar
     8     8     9    1
     9     9    10    1
    10     9    11    1
    11    11    12   ar
    12    12    13   ar
    13    13    14    1
    14    14    15   ar
    15    15    16   ar
    16    16    17   ar
    17    17    18   ar
    18    18    19    2
    19    18    20   ar
    20    20    21   ar
    21    21    22   ar
    22    22    23   ar
    23    23    24   ar
    24    13    25   ar
    25    25    26   ar
    26    26    27   ar
    27    27     2    1
    28     8     3   ar
    29    27    11   ar
    30    24    14   ar
    31    23    17   ar
    32     1    28    1
    33     1    29    1
    34     1    30    1
    35     4    31    1
    36     5    32    1
    37     6    33    1
    38     7    34    1
    39    10    35    1
    40    10    36    1
    41    10    37    1
    42    12    38    1
    43    15    39    1
    44    16    40    1
    45    20    41    1
    46    21    42    1
    47    22    43    1
    48    24    44    1
    49    25    45    1
    50    26    46    1
