@<TRIPOS>MOLECULE
*****
 49 54 0 0 0
SMALL
GASTEIGER

@<TRIPOS>ATOM
      1 C          -4.3267   -2.7761    0.6976 C.3     1  UNL1        0.0059
      2 N          -3.8759   -1.4559    0.2696 N.pl3   1  UNL1       -0.3003
      3 C          -4.8398   -0.4754   -0.0819 C.ar    1  UNL1        0.0554
      4 C          -6.1974   -0.7824   -0.2931 C.ar    1  UNL1       -0.0385
      5 C          -7.1198    0.2029   -0.6492 C.ar    1  UNL1       -0.0599
      6 C          -6.7002    1.5143   -0.8166 C.ar    1  UNL1       -0.0599
      7 C          -5.3572    1.8440   -0.6283 C.ar    1  UNL1       -0.0385
      8 C          -4.4086    0.8734   -0.2539 C.ar    1  UNL1        0.0554
      9 N          -3.0349    1.1751   -0.0682 N.pl3   1  UNL1       -0.3003
     10 C          -2.6191    2.5700    0.0374 C.3     1  UNL1        0.0059
     11 C          -2.0538    0.1517   -0.0017 C.ar    1  UNL1        0.0559
     12 C          -0.6739    0.4115   -0.1290 C.ar    1  UNL1       -0.0308
     13 C           0.2904   -0.6083   -0.0707 C.ar    1  UNL1       -0.0159
     14 C           1.7240   -0.3045   -0.2069 C.ar    1  UNL1       -0.0158
     15 C           2.2133    0.3276   -1.3600 C.ar    1  UNL1       -0.0533
     16 C           3.5744    0.6282   -1.5151 C.ar    1  UNL1       -0.0514
     17 C           4.4781    0.2909   -0.4895 C.ar    1  UNL1        0.0090
     18 C           3.9810   -0.3377    0.6542 C.ar    1  UNL1        0.0492
     19 C           2.6236   -0.6456    0.8204 C.ar    1  UNL1       -0.0300
     20 N           5.0501   -0.5546    1.4933 N.ar    1  UNL1       -0.3390
     21 C           6.2038   -0.0935    0.9270 C.ar    1  UNL1        0.1391
     22 N           7.4163   -0.1661    1.5071 N.ar    1  UNL1       -0.2375
     23 C           8.3968    0.3621    0.7392 C.ar    1  UNL1        0.0299
     24 C           8.2264    0.9298   -0.5172 C.ar    1  UNL1       -0.0429
     25 C           6.9459    0.9784   -1.0702 C.ar    1  UNL1       -0.0490
     26 C           5.8881    0.4431   -0.3149 C.ar    1  UNL1        0.0264
     27 C          -0.1516   -1.9211    0.1063 C.ar    1  UNL1       -0.0522
     28 C          -1.5148   -2.2101    0.2169 C.ar    1  UNL1       -0.0380
     29 C          -2.4852   -1.1947    0.1733 C.ar    1  UNL1        0.0554
     30 H          -3.6387   -3.2377    1.4148 H       1  UNL1        0.0432
     31 H          -5.2785   -2.7344    1.2391 H       1  UNL1        0.0432
     32 H          -4.4389   -3.4430   -0.1639 H       1  UNL1        0.0432
     33 H          -6.5638   -1.8000   -0.2103 H       1  UNL1        0.0637
     34 H          -8.1616   -0.0613   -0.8092 H       1  UNL1        0.0618
     35 H          -7.4118    2.2819   -1.1085 H       1  UNL1        0.0618
     36 H          -5.0671    2.8738   -0.8074 H       1  UNL1        0.0637
     37 H          -2.3795    2.9762   -0.9510 H       1  UNL1        0.0432
     38 H          -1.7489    2.6946    0.6920 H       1  UNL1        0.0432
     39 H          -3.3872    3.1992    0.5012 H       1  UNL1        0.0432
     40 H          -0.3221    1.4257   -0.2931 H       1  UNL1        0.0643
     41 H           1.5294    0.5859   -2.1672 H       1  UNL1        0.0624
     42 H           3.9237    1.1144   -2.4211 H       1  UNL1        0.0624
     43 H           2.2715   -1.1269    1.7289 H       1  UNL1        0.0644
     44 H           5.0110   -0.9905    2.4012 H       1  UNL1        0.1673
     45 H           9.3883    0.3164    1.1843 H       1  UNL1        0.0830
     46 H           9.0773    1.3288   -1.0586 H       1  UNL1        0.0633
     47 H           6.7745    1.4140   -2.0486 H       1  UNL1        0.0625
     48 H           0.5642   -2.7402    0.1333 H       1  UNL1        0.0624
     49 H          -1.7950   -3.2539    0.3097 H       1  UNL1        0.0637
@<TRIPOS>BOND
     1     1     2    1
     2     2     3    1
     3     3     4   ar
     4     4     5   ar
     5     5     6   ar
     6     6     7   ar
     7     7     8   ar
     8     8     9    1
     9     9    10    1
    10     9    11    1
    11    11    12   ar
    12    12    13   ar
    13    13    14    1
    14    14    15   ar
    15    15    16   ar
    16    16    17   ar
    17    17    18   ar
    18    18    19   ar
    19    18    20   ar
    20    20    21   ar
    21    21    22   ar
    22    22    23   ar
    23    23    24   ar
    24    24    25   ar
    25    25    26   ar
    26    13    27   ar
    27    27    28   ar
    28    28    29   ar
    29    29     2    1
    30     8     3   ar
    31    29    11   ar
    32    19    14   ar
    33    26    21   ar
    34    26    17   ar
    35     1    30    1
    36     1    31    1
    37     1    32    1
    38     4    33    1
    39     5    34    1
    40     6    35    1
    41     7    36    1
    42    10    37    1
    43    10    38    1
    44    10    39    1
    45    12    40    1
    46    15    41    1
    47    16    42    1
    48    19    43    1
    49    20    44    1
    50    23    45    1
    51    24    46    1
    52    25    47    1
    53    27    48    1
    54    28    49    1
