@<TRIPOS>MOLECULE
*****
 46 50 0 0 0
SMALL
GASTEIGER

@<TRIPOS>ATOM
      1 C          -3.6624    2.5303    1.2162 C.3     1  UNL1        0.0059
      2 N          -3.2365    1.2429    0.6769 N.pl3   1  UNL1       -0.3003
      3 C          -4.2195    0.2924    0.2974 C.ar    1  UNL1        0.0554
      4 C          -5.5748    0.4115    0.6589 C.ar    1  UNL1       -0.0385
      5 C          -6.5161   -0.5468    0.2798 C.ar    1  UNL1       -0.0599
      6 C          -6.1184   -1.6532   -0.4563 C.ar    1  UNL1       -0.0599
      7 C          -4.7782   -1.8041   -0.8154 C.ar    1  UNL1       -0.0385
      8 C          -3.8107   -0.8452   -0.4600 C.ar    1  UNL1        0.0554
      9 N          -2.4392   -0.9773   -0.7985 N.pl3   1  UNL1       -0.3003
     10 C          -2.0468   -1.9592   -1.8043 C.3     1  UNL1        0.0059
     11 C          -1.4424   -0.1812   -0.1769 C.ar    1  UNL1        0.0559
     12 C          -0.0679   -0.4877   -0.2524 C.ar    1  UNL1       -0.0308
     13 C           0.9143    0.2980    0.3748 C.ar    1  UNL1       -0.0160
     14 C           2.3421   -0.0497    0.2795 C.ar    1  UNL1       -0.0171
     15 C           2.7980   -1.3353    0.6198 C.ar    1  UNL1       -0.0533
     16 C           4.1528   -1.6702    0.5299 C.ar    1  UNL1       -0.0497
     17 C           5.0793   -0.7175    0.0971 C.ar    1  UNL1        0.0325
     18 C           4.6488    0.5635   -0.2416 C.ar    1  UNL1        0.0330
     19 C           3.2889    0.8951   -0.1520 C.ar    1  UNL1       -0.0425
     20 C           5.6177    1.5807   -0.6959 C.2     1  UNL1        0.1869
     21 O           5.2733    2.7170   -0.9925 O.2     1  UNL1       -0.2873
     22 C           7.0381    1.1884   -0.7823 C.2     1  UNL1       -0.0107
     23 C           7.4496   -0.0398   -0.4592 C.2     1  UNL1       -0.0107
     24 C           6.5078   -1.0780    0.0028 C.2     1  UNL1        0.1869
     25 O           6.9142   -2.1954    0.2927 O.2     1  UNL1       -0.2873
     26 C           0.4918    1.4124    1.1040 C.ar    1  UNL1       -0.0522
     27 C          -0.8657    1.7300    1.2102 C.ar    1  UNL1       -0.0380
     28 C          -1.8517    0.9558    0.5765 C.ar    1  UNL1        0.0554
     29 H          -4.6072    2.8719    0.7785 H       1  UNL1        0.0432
     30 H          -2.9577    3.3347    0.9767 H       1  UNL1        0.0432
     31 H          -3.7768    2.4733    2.3040 H       1  UNL1        0.0432
     32 H          -5.9247    1.2400    1.2655 H       1  UNL1        0.0637
     33 H          -7.5559   -0.4325    0.5742 H       1  UNL1        0.0618
     34 H          -6.8452   -2.4093   -0.7407 H       1  UNL1        0.0618
     35 H          -4.5058   -2.7035   -1.3574 H       1  UNL1        0.0637
     36 H          -1.1709   -1.6366   -2.3787 H       1  UNL1        0.0432
     37 H          -2.8203   -2.1061   -2.5666 H       1  UNL1        0.0432
     38 H          -1.8260   -2.9237   -1.3349 H       1  UNL1        0.0432
     39 H           0.2610   -1.3664   -0.7988 H       1  UNL1        0.0643
     40 H           2.0943   -2.0885    0.9730 H       1  UNL1        0.0624
     41 H           4.4784   -2.6728    0.8022 H       1  UNL1        0.0625
     42 H           2.9643    1.8974   -0.4324 H       1  UNL1        0.0631
     43 H           7.7276    1.9531   -1.1213 H       1  UNL1        0.0657
     44 H           8.4922   -0.3300   -0.5210 H       1  UNL1        0.0657
     45 H           1.2156    2.0375    1.6232 H       1  UNL1        0.0624
     46 H          -1.1292    2.5841    1.8253 H       1  UNL1        0.0637
@<TRIPOS>BOND
     1     1     2    1
     2     2     3    1
     3     3     4   ar
     4     4     5   ar
     5     5     6   ar
     6     6     7   ar
     7     7     8   ar
     8     8     9    1
     9     9    10    1
    10     9    11    1
    11    11    12   ar
    12    12    13   ar
    13    13    14    1
    14    14    15   ar
    15    15    16   ar
    16    16    17   ar
    17    17    18   ar
    18    18    19   ar
    19    18    20    1
    20    20    21    2
    21    20    22    1
    22    22    23    2
    23    23    24    1
    24    24    25    2
    25    13    26   ar
    26    26    27   ar
    27    27    28   ar
    28    28     2    1
    29     8     3   ar
    30    28    11   ar
    31    19    14   ar
    32    24    17    1
    33     1    29    1
    34     1    30    1
    35     1    31    1
    36     4    32    1
    37     5    33    1
    38     6    34    1
    39     7    35    1
    40    10    36    1
    41    10    37    1
    42    10    38    1
    43    12    39    1
    44    15    40    1
    45    16    41    1
    46    19    42    1
    47    22    43    1
    48    23    44    1
    49    26    45    1
    50    27    46    1
