@<TRIPOS>MOLECULE
*****
 44 48 0 0 0
SMALL
GASTEIGER

@<TRIPOS>ATOM
      1 C          -3.6424   -0.9022   -2.4492 C.3     1  UNL1        0.0059
      2 N          -3.0299   -0.4196   -1.2157 N.pl3   1  UNL1       -0.3003
      3 C          -3.8606    0.0992   -0.1885 C.ar    1  UNL1        0.0554
      4 C          -5.2170    0.4165   -0.3923 C.ar    1  UNL1       -0.0385
      5 C          -6.0051    0.9373    0.6351 C.ar    1  UNL1       -0.0599
      6 C          -5.4487    1.1660    1.8849 C.ar    1  UNL1       -0.0599
      7 C          -4.1026    0.8743    2.1106 C.ar    1  UNL1       -0.0385
      8 C          -3.2885    0.3337    1.0971 C.ar    1  UNL1        0.0554
      9 N          -1.9142    0.0383    1.2919 N.pl3   1  UNL1       -0.3003
     10 C          -1.3789    0.0111    2.6495 C.3     1  UNL1        0.0059
     11 C          -1.0457   -0.2010    0.1954 C.ar    1  UNL1        0.0559
     12 C           0.3591   -0.1878    0.3203 C.ar    1  UNL1       -0.0308
     13 C           1.2140   -0.4152   -0.7717 C.ar    1  UNL1       -0.0160
     14 C           2.6778   -0.3952   -0.6091 C.ar    1  UNL1       -0.0171
     15 C           3.4664   -1.4974   -1.0427 C.ar    1  UNL1       -0.0533
     16 C           4.8605   -1.5119   -0.9045 C.ar    1  UNL1       -0.0483
     17 C           5.4441   -0.4058   -0.3257 C.ar    1  UNL1        0.0492
     18 C           4.6948    0.6749    0.1037 C.ar    1  UNL1        0.0498
     19 C           3.3192    0.7127   -0.0228 C.ar    1  UNL1       -0.0412
     20 C           5.6227    1.6568    0.6633 C.2     1  UNL1        0.2513
     21 O           5.3118    2.7274    1.1437 O.2     1  UNL1       -0.2698
     22 N           6.8683    1.1226    0.5379 N.am    1  UNL1       -0.2483
     23 C           6.8473   -0.1094   -0.0402 C.2     1  UNL1        0.2512
     24 O           7.7858   -0.8404   -0.2820 O.2     1  UNL1       -0.2698
     25 C           0.6321   -0.6464   -2.0205 C.ar    1  UNL1       -0.0522
     26 C          -0.7571   -0.6485   -2.1769 C.ar    1  UNL1       -0.0380
     27 C          -1.6181   -0.4363   -1.0873 C.ar    1  UNL1        0.0554
     28 H          -4.6289   -1.3471   -2.2764 H       1  UNL1        0.0432
     29 H          -3.7437   -0.0872   -3.1738 H       1  UNL1        0.0432
     30 H          -3.0670   -1.7139   -2.9086 H       1  UNL1        0.0432
     31 H          -5.6852    0.2900   -1.3626 H       1  UNL1        0.0637
     32 H          -7.0489    1.1768    0.4506 H       1  UNL1        0.0618
     33 H          -6.0545    1.5857    2.6834 H       1  UNL1        0.0618
     34 H          -3.7012    1.1054    3.0915 H       1  UNL1        0.0637
     35 H          -2.1205   -0.3256    3.3826 H       1  UNL1        0.0432
     36 H          -0.5599   -0.7091    2.7573 H       1  UNL1        0.0432
     37 H          -1.0184    1.0033    2.9414 H       1  UNL1        0.0432
     38 H           0.8146    0.0183    1.2842 H       1  UNL1        0.0643
     39 H           2.9780   -2.3655   -1.4862 H       1  UNL1        0.0624
     40 H           5.4564   -2.3565   -1.2344 H       1  UNL1        0.0625
     41 H           2.7626    1.5831    0.3142 H       1  UNL1        0.0631
     42 H           7.7094    1.5832    0.8460 H       1  UNL1        0.1581
     43 H           1.2562   -0.8022   -2.8983 H       1  UNL1        0.0624
     44 H          -1.1441   -0.7924   -3.1803 H       1  UNL1        0.0637
@<TRIPOS>BOND
     1     1     2    1
     2     2     3    1
     3     3     4   ar
     4     4     5   ar
     5     5     6   ar
     6     6     7   ar
     7     7     8   ar
     8     8     9    1
     9     9    10    1
    10     9    11    1
    11    11    12   ar
    12    12    13   ar
    13    13    14    1
    14    14    15   ar
    15    15    16   ar
    16    16    17   ar
    17    17    18   ar
    18    18    19   ar
    19    18    20    1
    20    20    21    2
    21    20    22   am
    22    22    23   am
    23    23    24    2
    24    13    25   ar
    25    25    26   ar
    26    26    27   ar
    27    27     2    1
    28     8     3   ar
    29    27    11   ar
    30    19    14   ar
    31    23    17    1
    32     1    28    1
    33     1    29    1
    34     1    30    1
    35     4    31    1
    36     5    32    1
    37     6    33    1
    38     7    34    1
    39    10    35    1
    40    10    36    1
    41    10    37    1
    42    12    38    1
    43    15    39    1
    44    16    40    1
    45    19    41    1
    46    22    42    1
    47    25    43    1
    48    26    44    1
