@<TRIPOS>MOLECULE
*****
 50 57 0 0 0
SMALL
GASTEIGER

@<TRIPOS>ATOM
      1 SI         -5.3787   -1.7872    0.7275 Si      1  UNL1        0.0000
      2 C          -6.5282   -0.6379   -0.1406 C.2     1  UNL1        0.0000
      3 C          -5.8944    0.4334   -0.6404 C.2     1  UNL1        0.0000
      4 C          -4.4248    0.4740   -0.4001 C.ar    1  UNL1        0.0000
      5 C          -3.9241   -0.6374    0.3286 C.ar    1  UNL1        0.0000
      6 C          -2.5354   -0.7816    0.5911 C.ar    1  UNL1        0.0000
      7 C          -1.8965   -1.8511    1.3161 C.ar    1  UNL1        0.0000
      8 C          -2.4422   -2.8872    2.0394 C.ar    1  UNL1        0.0000
      9 O          -1.4648   -3.6923    2.5542 O.2     1  UNL1        0.0000
     10 C          -0.2688   -3.1708    2.1694 C.ar    1  UNL1        0.0000
     11 C          -0.4866   -2.0393    1.4307 C.ar    1  UNL1        0.0000
     12 C           0.4598   -1.2330    0.8439 C.ar    1  UNL1        0.0000
     13 C           1.9001   -1.4543    0.8045 C.2     1  UNL1        0.0000
     14 C           2.5419   -0.5618    0.0307 C.2     1  UNL1        0.0000
     15 SI          1.3793    0.6849   -0.7588 Si      1  UNL1        0.0000
     16 C          -0.1438   -0.1197    0.1606 C.ar    1  UNL1        0.0000
     17 C          -1.5930    0.1991    0.0744 C.ar    1  UNL1        0.0000
     18 C          -2.1731    1.4136   -0.5092 C.ar    1  UNL1        0.0000
     19 C          -1.4265    2.5921   -0.7715 C.ar    1  UNL1        0.0000
     20 C          -1.9415    3.7300   -1.4003 C.ar    1  UNL1        0.0000
     21 C          -3.2654    3.7563   -1.7732 C.ar    1  UNL1        0.0000
     22 C          -4.0695    2.6678   -1.4586 C.ar    1  UNL1        0.0000
     23 C          -3.5680    1.5137   -0.8003 C.ar    1  UNL1        0.0000
     24 C           3.9614   -0.5659   -0.2434 C.ar    1  UNL1        0.0000
     25 C           4.6294   -1.5260   -1.0443 C.ar    1  UNL1        0.0000
     26 C           6.0475   -1.5168   -1.3041 C.ar    1  UNL1        0.0000
     27 C           6.9481   -0.5564   -0.7859 C.ar    1  UNL1        0.0000
     28 C           6.2706    0.3604    0.0063 C.ar    1  UNL1        0.0000
     29 C           6.8105    1.4177    0.6872 C.ar    1  UNL1        0.0000
     30 O           5.8207    2.0729    1.3685 O.2     1  UNL1        0.0000
     31 C           4.6429    1.4214    1.1158 C.ar    1  UNL1        0.0000
     32 C           4.8678    0.3655    0.2695 C.ar    1  UNL1        0.0000
     33 H          -5.6464   -1.8713    2.1850 H       1  UNL1        0.0000
     34 H          -5.2628   -3.1018    0.0494 H       1  UNL1        0.0000
     35 H          -7.5857   -0.8396   -0.2172 H       1  UNL1        0.0000
     36 H          -6.4187    1.2069   -1.1824 H       1  UNL1        0.0000
     37 H          -3.4353   -3.2098    2.3064 H       1  UNL1        0.0000
     38 H           0.6051   -3.7120    2.5028 H       1  UNL1        0.0000
     39 H           2.3783   -2.2686    1.3317 H       1  UNL1        0.0000
     40 H           1.6764    2.0561   -0.2674 H       1  UNL1        0.0000
     41 H           1.2758    0.5240   -2.2314 H       1  UNL1        0.0000
     42 H          -0.4104    2.6934   -0.4168 H       1  UNL1        0.0000
     43 H          -1.3036    4.5925   -1.5746 H       1  UNL1        0.0000
     44 H          -3.6863    4.6284   -2.2648 H       1  UNL1        0.0000
     45 H          -5.1195    2.7519   -1.7232 H       1  UNL1        0.0000
     46 H           4.0409   -2.3234   -1.5012 H       1  UNL1        0.0000
     47 H           6.4490   -2.3062   -1.9415 H       1  UNL1        0.0000
     48 H           8.0101   -0.5628   -0.9850 H       1  UNL1        0.0000
     49 H           7.8044    1.8253    0.8040 H       1  UNL1        0.0000
     50 H           3.7743    1.8331    1.6098 H       1  UNL1        0.0000
@<TRIPOS>BOND
     1     1     2    1
     2     2     3    2
     3     3     4    1
     4     4     5   ar
     5     5     6   ar
     6     6     7   ar
     7     7     8   ar
     8     8     9   ar
     9     9    10   ar
    10    10    11   ar
    11    11    12   ar
    12    12    13    1
    13    13    14    2
    14    14    15    1
    15    15    16    1
    16    16    17   ar
    17    17    18   ar
    18    18    19   ar
    19    19    20   ar
    20    20    21   ar
    21    21    22   ar
    22    22    23   ar
    23    14    24    1
    24    24    25   ar
    25    25    26   ar
    26    26    27   ar
    27    27    28   ar
    28    28    29   ar
    29    29    30   ar
    30    30    31   ar
    31    31    32   ar
    32     5     1    1
    33    17     6   ar
    34    23    18   ar
    35    32    24   ar
    36    23     4   ar
    37    32    28   ar
    38    11     7   ar
    39    16    12   ar
    40     1    33    1
    41     1    34    1
    42     2    35    1
    43     3    36    1
    44     8    37    1
    45    10    38    1
    46    13    39    1
    47    15    40    1
    48    15    41    1
    49    19    42    1
    50    20    43    1
    51    21    44    1
    52    22    45    1
    53    25    46    1
    54    26    47    1
    55    27    48    1
    56    29    49    1
    57    31    50    1
