@<TRIPOS>MOLECULE
*****
 49 54 0 0 0
SMALL
GASTEIGER

@<TRIPOS>ATOM
      1 C          -4.2548    3.0658   -1.1908 C.3     1  UNL1        0.0059
      2 N          -3.8602    1.7285   -0.7604 N.pl3   1  UNL1       -0.3003
      3 C          -4.8653    0.7682   -0.4754 C.ar    1  UNL1        0.0554
      4 C          -6.2136    0.9454   -0.8395 C.ar    1  UNL1       -0.0385
      5 C          -7.1775   -0.0235   -0.5563 C.ar    1  UNL1       -0.0599
      6 C          -6.8098   -1.1977    0.0838 C.ar    1  UNL1       -0.0599
      7 C          -5.4772   -1.4061    0.4427 C.ar    1  UNL1       -0.0385
      8 C          -4.4872   -0.4393    0.1834 C.ar    1  UNL1        0.0554
      9 N          -3.1229   -0.6269    0.5251 N.pl3   1  UNL1       -0.3003
     10 C          -2.7571   -1.7155    1.4258 C.3     1  UNL1        0.0059
     11 C          -2.1035    0.2010   -0.0135 C.ar    1  UNL1        0.0559
     12 C          -0.7359   -0.1355    0.0522 C.ar    1  UNL1       -0.0308
     13 C           0.2671    0.6827   -0.4946 C.ar    1  UNL1       -0.0160
     14 C           1.6862    0.3026   -0.4048 C.ar    1  UNL1       -0.0167
     15 C           2.4692    0.1747   -1.5540 C.ar    1  UNL1       -0.0534
     16 C           3.8196   -0.1893   -1.4771 C.ar    1  UNL1       -0.0524
     17 C           4.4331   -0.4382   -0.2238 C.ar    1  UNL1       -0.0031
     18 C           3.6443   -0.3073    0.9177 C.ar    1  UNL1        0.0211
     19 C           2.2832    0.0582    0.8432 C.ar    1  UNL1       -0.0397
     20 S           4.5393   -0.6403    2.3425 S.2     1  UNL1       -0.0882
     21 C           5.9824   -0.9653    1.4747 C.ar    1  UNL1        0.0205
     22 C           7.2294   -1.3335    2.0193 C.ar    1  UNL1       -0.0474
     23 C           8.3053   -1.5615    1.1595 C.ar    1  UNL1       -0.0607
     24 C           8.1494   -1.4276   -0.2117 C.ar    1  UNL1       -0.0611
     25 C           6.9103   -1.0620   -0.7463 C.ar    1  UNL1       -0.0529
     26 C           5.7951   -0.8226    0.0994 C.ar    1  UNL1       -0.0031
     27 C          -0.1248    1.8598   -1.1361 C.ar    1  UNL1       -0.0522
     28 C          -1.4746    2.2113   -1.2294 C.ar    1  UNL1       -0.0380
     29 C          -2.4821    1.4060   -0.6718 C.ar    1  UNL1        0.0554
     30 H          -5.1979    3.3874   -0.7346 H       1  UNL1        0.0432
     31 H          -4.3576    3.1051   -2.2805 H       1  UNL1        0.0432
     32 H          -3.5376    3.8321   -0.8755 H       1  UNL1        0.0432
     33 H          -6.5402    1.8306   -1.3747 H       1  UNL1        0.0637
     34 H          -8.2112    0.1367   -0.8508 H       1  UNL1        0.0618
     35 H          -7.5540   -1.9615    0.2928 H       1  UNL1        0.0618
     36 H          -5.2292   -2.3547    0.9067 H       1  UNL1        0.0637
     37 H          -2.5534   -2.6311    0.8605 H       1  UNL1        0.0432
     38 H          -3.5384   -1.9232    2.1656 H       1  UNL1        0.0432
     39 H          -1.8790   -1.4725    2.0348 H       1  UNL1        0.0432
     40 H          -0.4268   -1.0730    0.5051 H       1  UNL1        0.0643
     41 H           2.0302    0.3462   -2.5356 H       1  UNL1        0.0624
     42 H           4.3970   -0.2832   -2.3934 H       1  UNL1        0.0624
     43 H           1.7033    0.1607    1.7579 H       1  UNL1        0.0635
     44 H           7.3536   -1.4388    3.0935 H       1  UNL1        0.0629
     45 H           9.2710   -1.8459    1.5708 H       1  UNL1        0.0618
     46 H           8.9918   -1.6068   -0.8753 H       1  UNL1        0.0618
     47 H           6.8050   -0.9613   -1.8236 H       1  UNL1        0.0624
     48 H           0.6210    2.5197   -1.5745 H       1  UNL1        0.0624
     49 H          -1.7148    3.1209   -1.7696 H       1  UNL1        0.0637
@<TRIPOS>BOND
     1     1     2    1
     2     2     3    1
     3     3     4   ar
     4     4     5   ar
     5     5     6   ar
     6     6     7   ar
     7     7     8   ar
     8     8     9    1
     9     9    10    1
    10     9    11    1
    11    11    12   ar
    12    12    13   ar
    13    13    14    1
    14    14    15   ar
    15    15    16   ar
    16    16    17   ar
    17    17    18   ar
    18    18    19   ar
    19    18    20   ar
    20    20    21   ar
    21    21    22   ar
    22    22    23   ar
    23    23    24   ar
    24    24    25   ar
    25    25    26   ar
    26    13    27   ar
    27    27    28   ar
    28    28    29   ar
    29    29     2    1
    30     8     3   ar
    31    29    11   ar
    32    19    14   ar
    33    26    21   ar
    34    26    17   ar
    35     1    30    1
    36     1    31    1
    37     1    32    1
    38     4    33    1
    39     5    34    1
    40     6    35    1
    41     7    36    1
    42    10    37    1
    43    10    38    1
    44    10    39    1
    45    12    40    1
    46    15    41    1
    47    16    42    1
    48    19    43    1
    49    22    44    1
    50    23    45    1
    51    24    46    1
    52    25    47    1
    53    27    48    1
    54    28    49    1
