@<TRIPOS>MOLECULE
*****
 44 48 0 0 0
SMALL
GASTEIGER

@<TRIPOS>ATOM
      1 C           3.1300    1.7860    2.3486 C.3     1  UNL1        0.0059
      2 N           2.8354    1.0489    1.1200 N.pl3   1  UNL1       -0.3003
      3 C           3.8869    0.3262    0.4959 C.ar    1  UNL1        0.0554
      4 C           5.2444    0.5397    0.8082 C.ar    1  UNL1       -0.0385
      5 C           6.2575   -0.2249    0.2283 C.ar    1  UNL1       -0.0599
      6 C           5.9340   -1.2212   -0.6792 C.ar    1  UNL1       -0.0599
      7 C           4.6010   -1.4262   -1.0374 C.ar    1  UNL1       -0.0385
      8 C           3.5620   -0.6409   -0.4991 C.ar    1  UNL1        0.0554
      9 N           2.2062   -0.7896   -0.8952 N.pl3   1  UNL1       -0.3003
     10 C           1.9150   -1.5252   -2.1255 C.3     1  UNL1        0.0059
     11 C           1.1554   -0.0668   -0.2693 C.ar    1  UNL1        0.0559
     12 C          -0.2043   -0.2828   -0.5814 C.ar    1  UNL1       -0.0308
     13 C          -1.2412    0.4738   -0.0098 C.ar    1  UNL1       -0.0159
     14 C          -2.6473    0.2321   -0.3701 C.ar    1  UNL1       -0.0157
     15 C          -3.0635    0.2349   -1.7059 C.ar    1  UNL1       -0.0519
     16 C          -4.4025    0.0056   -2.0346 C.ar    1  UNL1       -0.0337
     17 C          -5.3552   -0.2303   -1.0548 C.ar    1  UNL1        0.0892
     18 N          -6.6370   -0.4476   -1.4113 N.ar    1  UNL1       -0.2519
     19 C          -7.5091   -0.6701   -0.4049 C.ar    1  UNL1        0.0464
     20 C          -7.1199   -0.6762    0.9183 C.ar    1  UNL1        0.0464
     21 N          -5.8411   -0.4600    1.2942 N.ar    1  UNL1       -0.2519
     22 C          -4.9539   -0.2363    0.3035 C.ar    1  UNL1        0.0897
     23 C          -3.6183   -0.0069    0.6162 C.ar    1  UNL1       -0.0265
     24 C          -0.8928    1.4698    0.9037 C.ar    1  UNL1       -0.0522
     25 C           0.4421    1.6778    1.2628 C.ar    1  UNL1       -0.0380
     26 C           1.4810    0.8977    0.7248 C.ar    1  UNL1        0.0554
     27 H           3.9621    1.3519    2.9140 H       1  UNL1        0.0432
     28 H           3.3685    2.8292    2.1160 H       1  UNL1        0.0432
     29 H           2.3020    1.7666    3.0657 H       1  UNL1        0.0432
     30 H           5.5460    1.3162    1.5034 H       1  UNL1        0.0637
     31 H           7.2952   -0.0446    0.4953 H       1  UNL1        0.0618
     32 H           6.7154   -1.8360   -1.1175 H       1  UNL1        0.0618
     33 H           4.3946   -2.2265   -1.7403 H       1  UNL1        0.0637
     34 H           1.0811   -1.0930   -2.6898 H       1  UNL1        0.0432
     35 H           2.7429   -1.5000   -2.8425 H       1  UNL1        0.0432
     36 H           1.6806   -2.5698   -1.8954 H       1  UNL1        0.0432
     37 H          -0.4828   -1.0772   -1.2678 H       1  UNL1        0.0643
     38 H          -2.3506    0.4291   -2.5053 H       1  UNL1        0.0624
     39 H          -4.7096    0.0148   -3.0775 H       1  UNL1        0.0640
     40 H          -8.5383   -0.8447   -0.6960 H       1  UNL1        0.0845
     41 H          -7.8279   -0.8561    1.7189 H       1  UNL1        0.0845
     42 H          -3.3303   -0.0279    1.6659 H       1  UNL1        0.0645
     43 H          -1.6592    2.1016    1.3485 H       1  UNL1        0.0624
     44 H           0.6457    2.4791    1.9656 H       1  UNL1        0.0637
@<TRIPOS>BOND
     1     1     2    1
     2     2     3    1
     3     3     4   ar
     4     4     5   ar
     5     5     6   ar
     6     6     7   ar
     7     7     8   ar
     8     8     9    1
     9     9    10    1
    10     9    11    1
    11    11    12   ar
    12    12    13   ar
    13    13    14    1
    14    14    15   ar
    15    15    16   ar
    16    16    17   ar
    17    17    18   ar
    18    18    19   ar
    19    19    20   ar
    20    20    21   ar
    21    21    22   ar
    22    22    23   ar
    23    13    24   ar
    24    24    25   ar
    25    25    26   ar
    26    26     2    1
    27     8     3   ar
    28    26    11   ar
    29    23    14   ar
    30    22    17   ar
    31     1    27    1
    32     1    28    1
    33     1    29    1
    34     4    30    1
    35     5    31    1
    36     6    32    1
    37     7    33    1
    38    10    34    1
    39    10    35    1
    40    10    36    1
    41    12    37    1
    42    15    38    1
    43    16    39    1
    44    19    40    1
    45    20    41    1
    46    23    42    1
    47    24    43    1
    48    25    44    1
