@<TRIPOS>MOLECULE
*****
 41 44 0 0 0
SMALL
GASTEIGER

@<TRIPOS>ATOM
      1 C           1.8942   -2.9927    1.5370 C.3     1  UNL1        0.0059
      2 N           1.7474   -1.5898    1.1634 N.pl3   1  UNL1       -0.3003
      3 C           2.7589   -0.6661    1.5345 C.ar    1  UNL1        0.0554
      4 C           4.0285   -1.0677    1.9907 C.ar    1  UNL1       -0.0385
      5 C           5.0053   -0.1334    2.3395 C.ar    1  UNL1       -0.0599
      6 C           4.7378    1.2231    2.2243 C.ar    1  UNL1       -0.0599
      7 C           3.4928    1.6490    1.7596 C.ar    1  UNL1       -0.0385
      8 C           2.4850    0.7285    1.4159 C.ar    1  UNL1        0.0554
      9 N           1.2175    1.1313    0.9246 N.pl3   1  UNL1       -0.3003
     10 C           0.7845    2.5117    1.1208 C.3     1  UNL1        0.0059
     11 C           0.3330    0.2107    0.3070 C.ar    1  UNL1        0.0560
     12 C          -0.7803    0.6239   -0.4524 C.ar    1  UNL1       -0.0308
     13 C          -1.6474   -0.2941   -1.0658 C.ar    1  UNL1       -0.0148
     14 C          -2.7980    0.1628   -1.8634 C.ar    1  UNL1       -0.0005
     15 C          -2.7837   -0.0353   -3.2579 C.ar    1  UNL1       -0.0528
     16 C          -3.8489    0.3790   -4.0606 C.ar    1  UNL1       -0.0611
     17 C          -4.9527    0.9999   -3.4857 C.ar    1  UNL1       -0.0605
     18 C          -4.9909    1.2068   -2.1074 C.ar    1  UNL1       -0.0438
     19 C          -3.9233    0.7934   -1.2931 C.ar    1  UNL1        0.0595
     20 C          -4.0239    1.0267    0.1212 C.1     1  UNL1        0.0998
     21 N          -4.1337    1.2440    1.2564 N.1     1  UNL1       -0.1909
     22 C          -1.3718   -1.6566   -0.9284 C.ar    1  UNL1       -0.0521
     23 C          -0.2614   -2.0921   -0.1997 C.ar    1  UNL1       -0.0380
     24 C           0.6032   -1.1822    0.4317 C.ar    1  UNL1        0.0554
     25 H           0.9284   -3.4782    1.7169 H       1  UNL1        0.0432
     26 H           2.4301   -3.1169    2.4848 H       1  UNL1        0.0432
     27 H           2.4266   -3.5451    0.7553 H       1  UNL1        0.0432
     28 H           4.2944   -2.1170    2.0616 H       1  UNL1        0.0637
     29 H           5.9784   -0.4697    2.6871 H       1  UNL1        0.0618
     30 H           5.5003    1.9535    2.4810 H       1  UNL1        0.0618
     31 H           3.3380    2.7170    1.6474 H       1  UNL1        0.0637
     32 H           1.0758    3.1297    0.2647 H       1  UNL1        0.0432
     33 H          -0.2998    2.5911    1.2604 H       1  UNL1        0.0432
     34 H           1.2028    2.9532    2.0325 H       1  UNL1        0.0432
     35 H          -0.9701    1.6828   -0.6029 H       1  UNL1        0.0643
     36 H          -1.9254   -0.5129   -3.7297 H       1  UNL1        0.0624
     37 H          -3.8127    0.2170   -5.1355 H       1  UNL1        0.0618
     38 H          -5.7829    1.3229   -4.1093 H       1  UNL1        0.0618
     39 H          -5.8610    1.6924   -1.6678 H       1  UNL1        0.0631
     40 H          -2.0155   -2.3975   -1.3984 H       1  UNL1        0.0624
     41 H          -0.0794   -3.1609   -0.1604 H       1  UNL1        0.0637
@<TRIPOS>BOND
     1     1     2    1
     2     2     3    1
     3     3     4   ar
     4     4     5   ar
     5     5     6   ar
     6     6     7   ar
     7     7     8   ar
     8     8     9    1
     9     9    10    1
    10     9    11    1
    11    11    12   ar
    12    12    13   ar
    13    13    14    1
    14    14    15   ar
    15    15    16   ar
    16    16    17   ar
    17    17    18   ar
    18    18    19   ar
    19    19    20    1
    20    20    21    3
    21    13    22   ar
    22    22    23   ar
    23    23    24   ar
    24    24     2    1
    25     8     3   ar
    26    24    11   ar
    27    19    14   ar
    28     1    25    1
    29     1    26    1
    30     1    27    1
    31     4    28    1
    32     5    29    1
    33     6    30    1
    34     7    31    1
    35    10    32    1
    36    10    33    1
    37    10    34    1
    38    12    35    1
    39    15    36    1
    40    16    37    1
    41    17    38    1
    42    18    39    1
    43    22    40    1
    44    23    41    1
