@<TRIPOS>MOLECULE
*****
 44 48 0 0 0
SMALL
GASTEIGER

@<TRIPOS>ATOM
      1 C           3.7167   -2.3650    1.1742 C.3     1  UNL1        0.0059
      2 N           3.1069   -1.2126    0.5186 N.pl3   1  UNL1       -0.3003
      3 C           3.9439   -0.2073   -0.0319 C.ar    1  UNL1        0.0554
      4 C           5.3217   -0.1259    0.2462 C.ar    1  UNL1       -0.0385
      5 C           6.1164    0.8825   -0.3012 C.ar    1  UNL1       -0.0599
      6 C           5.5462    1.8404   -1.1266 C.ar    1  UNL1       -0.0599
      7 C           4.1799    1.7922   -1.4071 C.ar    1  UNL1       -0.0385
      8 C           3.3578    0.7774   -0.8814 C.ar    1  UNL1        0.0554
      9 N           1.9638    0.7087   -1.1380 N.pl3   1  UNL1       -0.3003
     10 C           1.3959    1.5266   -2.2052 C.3     1  UNL1        0.0059
     11 C           1.1079   -0.1153   -0.3619 C.ar    1  UNL1        0.0560
     12 C          -0.2959    0.0196   -0.3755 C.ar    1  UNL1       -0.0308
     13 C          -1.1389   -0.7935    0.4017 C.ar    1  UNL1       -0.0145
     14 C          -2.5988   -0.6295    0.3618 C.ar    1  UNL1        0.0023
     15 C          -3.4550   -1.7018    0.1300 C.ar    1  UNL1        0.0361
     16 N          -4.8050   -1.6126    0.0834 N.ar    1  UNL1       -0.2528
     17 C          -5.3479   -0.3943    0.2722 C.ar    1  UNL1        0.0892
     18 C          -6.7247   -0.2400    0.2342 C.ar    1  UNL1       -0.0328
     19 C          -7.3113    1.0086    0.4261 C.ar    1  UNL1       -0.0415
     20 C          -6.4789    2.0861    0.6546 C.ar    1  UNL1        0.0284
     21 N          -5.1337    1.9909    0.7008 N.ar    1  UNL1       -0.2534
     22 C          -4.5888    0.7700    0.5129 C.ar    1  UNL1        0.0897
     23 C          -3.2104    0.6170    0.5530 C.ar    1  UNL1       -0.0251
     24 C          -0.5431   -1.7538    1.2236 C.ar    1  UNL1       -0.0521
     25 C           0.8469   -1.8978    1.2702 C.ar    1  UNL1       -0.0380
     26 C           1.6942   -1.0991    0.4844 C.ar    1  UNL1        0.0554
     27 H           4.6698   -2.6484    0.7134 H       1  UNL1        0.0432
     28 H           3.1033   -3.2683    1.0813 H       1  UNL1        0.0432
     29 H           3.8845   -2.1598    2.2368 H       1  UNL1        0.0432
     30 H           5.8034   -0.8304    0.9157 H       1  UNL1        0.0637
     31 H           7.1769    0.9247   -0.0681 H       1  UNL1        0.0618
     32 H           6.1581    2.6362   -1.5427 H       1  UNL1        0.0618
     33 H           3.7707    2.5838   -2.0259 H       1  UNL1        0.0637
     34 H           2.0986    1.6780   -3.0324 H       1  UNL1        0.0432
     35 H           1.0886    2.5044   -1.8192 H       1  UNL1        0.0432
     36 H           0.5331    1.0463   -2.6806 H       1  UNL1        0.0432
     37 H          -0.7596    0.7837   -0.9926 H       1  UNL1        0.0643
     38 H          -3.0670   -2.7035   -0.0421 H       1  UNL1        0.0836
     39 H          -7.3493   -1.1103    0.0517 H       1  UNL1        0.0640
     40 H          -8.3880    1.1311    0.3972 H       1  UNL1        0.0633
     41 H          -6.8799    3.0836    0.8114 H       1  UNL1        0.0830
     42 H          -2.6033    1.4978    0.7514 H       1  UNL1        0.0646
     43 H          -1.1530   -2.3876    1.8648 H       1  UNL1        0.0624
     44 H           1.2474   -2.6328    1.9608 H       1  UNL1        0.0637
@<TRIPOS>BOND
     1     1     2    1
     2     2     3    1
     3     3     4   ar
     4     4     5   ar
     5     5     6   ar
     6     6     7   ar
     7     7     8   ar
     8     8     9    1
     9     9    10    1
    10     9    11    1
    11    11    12   ar
    12    12    13   ar
    13    13    14    1
    14    14    15   ar
    15    15    16   ar
    16    16    17   ar
    17    17    18   ar
    18    18    19   ar
    19    19    20   ar
    20    20    21   ar
    21    21    22   ar
    22    22    23   ar
    23    13    24   ar
    24    24    25   ar
    25    25    26   ar
    26    26     2    1
    27     8     3   ar
    28    26    11   ar
    29    23    14   ar
    30    22    17   ar
    31     1    27    1
    32     1    28    1
    33     1    29    1
    34     4    30    1
    35     5    31    1
    36     6    32    1
    37     7    33    1
    38    10    34    1
    39    10    35    1
    40    10    36    1
    41    12    37    1
    42    15    38    1
    43    18    39    1
    44    19    40    1
    45    20    41    1
    46    23    42    1
    47    24    43    1
    48    25    44    1
