@<TRIPOS>MOLECULE
*****
 44 48 0 0 0
SMALL
GASTEIGER

@<TRIPOS>ATOM
      1 C           3.3739    3.0453   -0.2181 C.3     1  UNL1        0.0059
      2 N           2.9075    1.6633   -0.1659 N.pl3   1  UNL1       -0.3003
      3 C           3.8527    0.6102   -0.2734 C.ar    1  UNL1        0.0554
      4 C           5.1800    0.8167   -0.6944 C.ar    1  UNL1       -0.0385
      5 C           6.0832   -0.2422   -0.8001 C.ar    1  UNL1       -0.0599
      6 C           5.6731   -1.5333   -0.5014 C.ar    1  UNL1       -0.0599
      7 C           4.3586   -1.7688   -0.0961 C.ar    1  UNL1       -0.0385
      8 C           3.4314   -0.7175    0.0339 C.ar    1  UNL1        0.0554
      9 N           2.0851   -0.9273    0.4295 N.pl3   1  UNL1       -0.3003
     10 C           1.7126   -2.2032    1.0326 C.3     1  UNL1        0.0059
     11 C           1.0972    0.0763    0.2578 C.ar    1  UNL1        0.0560
     12 C          -0.2839   -0.1942    0.3457 C.ar    1  UNL1       -0.0308
     13 C          -1.2583    0.8023    0.1654 C.ar    1  UNL1       -0.0145
     14 C          -2.6889    0.4883    0.2601 C.ar    1  UNL1        0.0010
     15 C          -3.5428    1.1765    1.1137 C.ar    1  UNL1        0.0377
     16 N          -4.8711    0.9388    1.2448 N.ar    1  UNL1       -0.2351
     17 C          -5.4281   -0.0249    0.5113 C.ar    1  UNL1        0.1597
     18 N          -6.7365   -0.2492    0.6488 N.ar    1  UNL1       -0.2357
     19 C          -7.3157   -1.2209   -0.0894 C.ar    1  UNL1        0.0300
     20 C          -6.6358   -2.0123   -0.9923 C.ar    1  UNL1       -0.0429
     21 C          -5.2763   -1.7889   -1.1432 C.ar    1  UNL1       -0.0496
     22 C          -4.6538   -0.7856   -0.3863 C.ar    1  UNL1        0.0198
     23 C          -3.2795   -0.5191   -0.5032 C.ar    1  UNL1       -0.0419
     24 C          -0.8236    2.0983   -0.1236 C.ar    1  UNL1       -0.0521
     25 C           0.5390    2.3904   -0.2357 C.ar    1  UNL1       -0.0380
     26 C           1.5192    1.4024   -0.0446 C.ar    1  UNL1        0.0554
     27 H           4.3710    3.1639    0.2209 H       1  UNL1        0.0432
     28 H           2.7454    3.7185    0.3757 H       1  UNL1        0.0432
     29 H           3.3977    3.4049   -1.2523 H       1  UNL1        0.0432
     30 H           5.5348    1.8030   -0.9740 H       1  UNL1        0.0637
     31 H           7.1017   -0.0560   -1.1300 H       1  UNL1        0.0618
     32 H           6.3689   -2.3625   -0.5965 H       1  UNL1        0.0618
     33 H           4.0710   -2.7982    0.0900 H       1  UNL1        0.0637
     34 H           0.9082   -2.0945    1.7690 H       1  UNL1        0.0432
     35 H           1.3931   -2.9136    0.2627 H       1  UNL1        0.0432
     36 H           2.5343   -2.6486    1.6050 H       1  UNL1        0.0432
     37 H          -0.6253   -1.2055    0.5460 H       1  UNL1        0.0643
     38 H          -3.1713    1.9718    1.7565 H       1  UNL1        0.0836
     39 H          -8.3826   -1.3463    0.0745 H       1  UNL1        0.0830
     40 H          -7.1501   -2.7786   -1.5607 H       1  UNL1        0.0633
     41 H          -4.7075   -2.3918   -1.8461 H       1  UNL1        0.0625
     42 H          -2.6737   -1.0914   -1.2028 H       1  UNL1        0.0631
     43 H          -1.5435    2.8968   -0.2948 H       1  UNL1        0.0624
     44 H           0.8088    3.4065   -0.5047 H       1  UNL1        0.0637
@<TRIPOS>BOND
     1     1     2    1
     2     2     3    1
     3     3     4   ar
     4     4     5   ar
     5     5     6   ar
     6     6     7   ar
     7     7     8   ar
     8     8     9    1
     9     9    10    1
    10     9    11    1
    11    11    12   ar
    12    12    13   ar
    13    13    14    1
    14    14    15   ar
    15    15    16   ar
    16    16    17   ar
    17    17    18   ar
    18    18    19   ar
    19    19    20   ar
    20    20    21   ar
    21    21    22   ar
    22    22    23   ar
    23    13    24   ar
    24    24    25   ar
    25    25    26   ar
    26    26     2    1
    27     8     3   ar
    28    26    11   ar
    29    23    14   ar
    30    22    17   ar
    31     1    27    1
    32     1    28    1
    33     1    29    1
    34     4    30    1
    35     5    31    1
    36     6    32    1
    37     7    33    1
    38    10    34    1
    39    10    35    1
    40    10    36    1
    41    12    37    1
    42    15    38    1
    43    19    39    1
    44    20    40    1
    45    21    41    1
    46    23    42    1
    47    24    43    1
    48    25    44    1
