@<TRIPOS>MOLECULE
*****
 42 46 0 0 0
SMALL
GASTEIGER

@<TRIPOS>ATOM
      1 C          -3.1343   -2.5600   -0.9655 C.3     1  UNL1        0.0059
      2 N          -2.7169   -1.2292   -0.5352 N.pl3   1  UNL1       -0.3003
      3 C          -3.7042   -0.2417   -0.2834 C.ar    1  UNL1        0.0554
      4 C          -5.0478   -0.3879   -0.6765 C.ar    1  UNL1       -0.0385
      5 C          -5.9929    0.6075   -0.4226 C.ar    1  UNL1       -0.0599
      6 C          -5.6102    1.7776    0.2166 C.ar    1  UNL1       -0.0599
      7 C          -4.2814    1.9555    0.6039 C.ar    1  UNL1       -0.0385
      8 C          -3.3114    0.9613    0.3745 C.ar    1  UNL1        0.0554
      9 N          -1.9500    1.1198    0.7426 N.pl3   1  UNL1       -0.3003
     10 C          -1.5920    2.1712    1.6896 C.3     1  UNL1        0.0059
     11 C          -0.9401    0.2626    0.2336 C.ar    1  UNL1        0.0560
     12 C           0.4345    0.5740    0.3215 C.ar    1  UNL1       -0.0293
     13 C           1.4382   -0.2660   -0.1975 C.ar    1  UNL1        0.0038
     14 C           2.8726    0.0696   -0.1107 C.ar    1  UNL1        0.0916
     15 C           3.3650    1.3673   -0.1059 C.ar    1  UNL1        0.0561
     16 N           4.6827    1.6640   -0.0200 N.ar    1  UNL1       -0.2310
     17 C           5.5277    0.6305    0.0526 C.ar    1  UNL1        0.1977
     18 N           6.8394    0.8919    0.1384 N.ar    1  UNL1       -0.2316
     19 C           7.6697   -0.1681    0.2056 C.ar    1  UNL1        0.0482
     20 C           7.2037   -1.4637    0.1873 C.ar    1  UNL1        0.0482
     21 N           5.8890   -1.7505    0.1018 N.ar    1  UNL1       -0.2316
     22 C           5.0430   -0.7128    0.0356 C.ar    1  UNL1        0.1983
     23 N           3.7325   -0.9761   -0.0473 N.ar    1  UNL1       -0.2232
     24 C           1.0214   -1.4518   -0.8146 C.ar    1  UNL1       -0.0506
     25 C          -0.3337   -1.7773   -0.9330 C.ar    1  UNL1       -0.0379
     26 C          -1.3343   -0.9402   -0.4172 C.ar    1  UNL1        0.0554
     27 H          -3.2070   -2.6065   -2.0573 H       1  UNL1        0.0432
     28 H          -2.4468   -3.3417   -0.6231 H       1  UNL1        0.0432
     29 H          -4.0981   -2.8529   -0.5340 H       1  UNL1        0.0432
     30 H          -5.3848   -1.2691   -1.2120 H       1  UNL1        0.0637
     31 H          -7.0234    0.4707   -0.7392 H       1  UNL1        0.0618
     32 H          -6.3397    2.5614    0.4024 H       1  UNL1        0.0618
     33 H          -4.0182    2.9016    1.0651 H       1  UNL1        0.0637
     34 H          -0.7415    1.8882    2.3202 H       1  UNL1        0.0432
     35 H          -1.3459    3.0977    1.1599 H       1  UNL1        0.0432
     36 H          -2.3947    2.3771    2.4068 H       1  UNL1        0.0432
     37 H           0.7321    1.5009    0.8004 H       1  UNL1        0.0643
     38 H           2.7141    2.2315   -0.1874 H       1  UNL1        0.0852
     39 H           8.7279    0.0580    0.2747 H       1  UNL1        0.0846
     40 H           7.8751   -2.3135    0.2411 H       1  UNL1        0.0846
     41 H           1.7589   -2.1378   -1.2311 H       1  UNL1        0.0625
     42 H          -0.5785   -2.6930   -1.4610 H       1  UNL1        0.0637
@<TRIPOS>BOND
     1     1     2    1
     2     2     3    1
     3     3     4   ar
     4     4     5   ar
     5     5     6   ar
     6     6     7   ar
     7     7     8   ar
     8     8     9    1
     9     9    10    1
    10     9    11    1
    11    11    12   ar
    12    12    13   ar
    13    13    14    1
    14    14    15   ar
    15    15    16   ar
    16    16    17   ar
    17    17    18   ar
    18    18    19   ar
    19    19    20   ar
    20    20    21   ar
    21    21    22   ar
    22    22    23   ar
    23    13    24   ar
    24    24    25   ar
    25    25    26   ar
    26    26     2    1
    27     8     3   ar
    28    26    11   ar
    29    23    14   ar
    30    22    17   ar
    31     1    27    1
    32     1    28    1
    33     1    29    1
    34     4    30    1
    35     5    31    1
    36     6    32    1
    37     7    33    1
    38    10    34    1
    39    10    35    1
    40    10    36    1
    41    12    37    1
    42    15    38    1
    43    19    39    1
    44    20    40    1
    45    24    41    1
    46    25    42    1
