@<TRIPOS>MOLECULE
*****
 36 39 0 0 0
SMALL
GASTEIGER

@<TRIPOS>ATOM
      1 C          -1.9606   -2.4393   -1.2516 C.3     1  UNL1        0.0059
      2 N          -1.5007   -1.2274   -0.5807 N.pl3   1  UNL1       -0.3003
      3 C          -2.4586   -0.3429   -0.0199 C.ar    1  UNL1        0.0554
      4 C          -3.8094   -0.6962    0.1599 C.ar    1  UNL1       -0.0385
      5 C          -4.7252    0.1927    0.7252 C.ar    1  UNL1       -0.0599
      6 C          -4.3054    1.4490    1.1368 C.ar    1  UNL1       -0.0599
      7 C          -2.9687    1.8199    0.9842 C.ar    1  UNL1       -0.0385
      8 C          -2.0273    0.9492    0.4030 C.ar    1  UNL1        0.0554
      9 N          -0.6592    1.2923    0.2472 N.pl3   1  UNL1       -0.3003
     10 C          -0.2578    2.6883    0.3923 C.3     1  UNL1        0.0059
     11 C           0.3228    0.3099   -0.0424 C.ar    1  UNL1        0.0560
     12 C           1.7045    0.5513    0.1027 C.ar    1  UNL1       -0.0307
     13 C           2.6623   -0.4327   -0.1809 C.ar    1  UNL1       -0.0115
     14 C           4.0744   -0.1448   -0.0149 C.ar    1  UNL1        0.0408
     15 C           4.7537    0.7155    0.8770 C.ar    1  UNL1        0.0777
     16 N           6.0760    0.7040    0.6896 N.ar    1  UNL1       -0.0862
     17 O           6.2859   -0.1825   -0.3542 O.2     1  UNL1       -0.3623
     18 C           5.0932   -0.6802   -0.7677 C.ar    1  UNL1        0.1319
     19 C           2.2274   -1.6897   -0.5999 C.ar    1  UNL1       -0.0520
     20 C           0.8621   -1.9597   -0.7327 C.ar    1  UNL1       -0.0380
     21 C          -0.1095   -0.9794   -0.4682 C.ar    1  UNL1        0.0554
     22 H          -1.2882   -2.7469   -2.0604 H       1  UNL1        0.0432
     23 H          -2.0534   -3.2638   -0.5366 H       1  UNL1        0.0432
     24 H          -2.9242   -2.2957   -1.7535 H       1  UNL1        0.0432
     25 H          -4.1751   -1.6805   -0.1123 H       1  UNL1        0.0637
     26 H          -5.7619   -0.1059    0.8556 H       1  UNL1        0.0618
     27 H          -5.0118    2.1385    1.5913 H       1  UNL1        0.0618
     28 H          -2.6772    2.7968    1.3554 H       1  UNL1        0.0637
     29 H          -1.0417    3.3824    0.0688 H       1  UNL1        0.0432
     30 H           0.5967    2.9420   -0.2455 H       1  UNL1        0.0432
     31 H           0.0011    2.9078    1.4335 H       1  UNL1        0.0432
     32 H           2.0467    1.5186    0.4554 H       1  UNL1        0.0643
     33 H           4.3479    1.3442    1.6568 H       1  UNL1        0.0870
     34 H           5.1464   -1.3767   -1.5913 H       1  UNL1        0.1064
     35 H           2.9347   -2.4906   -0.8015 H       1  UNL1        0.0624
     36 H           0.5802   -2.9674   -1.0204 H       1  UNL1        0.0637
@<TRIPOS>BOND
     1     1     2    1
     2     2     3    1
     3     3     4   ar
     4     4     5   ar
     5     5     6   ar
     6     6     7   ar
     7     7     8   ar
     8     8     9    1
     9     9    10    1
    10     9    11    1
    11    11    12   ar
    12    12    13   ar
    13    13    14    1
    14    14    15   ar
    15    15    16   ar
    16    16    17   ar
    17    17    18   ar
    18    13    19   ar
    19    19    20   ar
    20    20    21   ar
    21    21     2    1
    22     8     3   ar
    23    21    11   ar
    24    18    14   ar
    25     1    22    1
    26     1    23    1
    27     1    24    1
    28     4    25    1
    29     5    26    1
    30     6    27    1
    31     7    28    1
    32    10    29    1
    33    10    30    1
    34    10    31    1
    35    12    32    1
    36    15    33    1
    37    18    34    1
    38    19    35    1
    39    20    36    1
