@<TRIPOS>MOLECULE
*****
 36 39 0 0 0
SMALL
GASTEIGER

@<TRIPOS>ATOM
      1 C          -2.1419   -2.6598    0.2362 C.3     1  UNL1        0.0059
      2 N          -1.6155   -1.3064    0.0940 N.pl3   1  UNL1       -0.3003
      3 C          -2.5183   -0.2324   -0.1203 C.ar    1  UNL1        0.0554
      4 C          -3.8679   -0.4300   -0.4697 C.ar    1  UNL1       -0.0385
      5 C          -4.7286    0.6469   -0.6875 C.ar    1  UNL1       -0.0599
      6 C          -4.2531    1.9450   -0.5752 C.ar    1  UNL1       -0.0599
      7 C          -2.9158    2.1696   -0.2445 C.ar    1  UNL1       -0.0385
      8 C          -2.0293    1.1028   -0.0040 C.ar    1  UNL1        0.0554
      9 N          -0.6629    1.2980    0.3234 N.pl3   1  UNL1       -0.3003
     10 C          -0.1979    2.6329    0.6879 C.3     1  UNL1        0.0059
     11 C           0.2755    0.2349    0.2518 C.ar    1  UNL1        0.0560
     12 C           1.6692    0.4464    0.2668 C.ar    1  UNL1       -0.0293
     13 C           2.5891   -0.6111    0.1900 C.ar    1  UNL1        0.0027
     14 C           4.0228   -0.3190    0.2184 C.ar    1  UNL1        0.0782
     15 C           5.0133   -1.2521    0.4680 C.ar    1  UNL1        0.0031
     16 S           6.5610   -0.5100    0.4168 S.2     1  UNL1       -0.0833
     17 C           5.8049    0.9890    0.0814 C.ar    1  UNL1        0.0654
     18 N           4.4933    0.9727    0.0081 N.ar    1  UNL1       -0.2474
     19 C           2.0941   -1.9099    0.0676 C.ar    1  UNL1       -0.0507
     20 C           0.7153   -2.1465    0.0344 C.ar    1  UNL1       -0.0379
     21 C          -0.2139   -1.0972    0.1347 C.ar    1  UNL1        0.0554
     22 H          -1.5183   -3.2818    0.8882 H       1  UNL1        0.0432
     23 H          -2.2244   -3.1459   -0.7418 H       1  UNL1        0.0432
     24 H          -3.1239   -2.6741    0.7226 H       1  UNL1        0.0432
     25 H          -4.2738   -1.4266   -0.6058 H       1  UNL1        0.0637
     26 H          -5.7652    0.4672   -0.9593 H       1  UNL1        0.0618
     27 H          -4.9154    2.7867   -0.7588 H       1  UNL1        0.0618
     28 H          -2.5796    3.2002   -0.2053 H       1  UNL1        0.0637
     29 H           0.1248    3.1851   -0.2012 H       1  UNL1        0.0432
     30 H          -0.9689    3.2151    1.2049 H       1  UNL1        0.0432
     31 H           0.6290    2.6018    1.4064 H       1  UNL1        0.0432
     32 H           2.0672    1.4558    0.3167 H       1  UNL1        0.0643
     33 H           4.9255   -2.3068    0.6810 H       1  UNL1        0.0715
     34 H           6.3797    1.8950   -0.0590 H       1  UNL1        0.0907
     35 H           2.7597   -2.7624   -0.0303 H       1  UNL1        0.0625
     36 H           0.3901   -3.1728   -0.1013 H       1  UNL1        0.0637
@<TRIPOS>BOND
     1     1     2    1
     2     2     3    1
     3     3     4   ar
     4     4     5   ar
     5     5     6   ar
     6     6     7   ar
     7     7     8   ar
     8     8     9    1
     9     9    10    1
    10     9    11    1
    11    11    12   ar
    12    12    13   ar
    13    13    14    1
    14    14    15   ar
    15    15    16   ar
    16    16    17   ar
    17    17    18   ar
    18    13    19   ar
    19    19    20   ar
    20    20    21   ar
    21    21     2    1
    22     8     3   ar
    23    21    11   ar
    24    18    14   ar
    25     1    22    1
    26     1    23    1
    27     1    24    1
    28     4    25    1
    29     5    26    1
    30     6    27    1
    31     7    28    1
    32    10    29    1
    33    10    30    1
    34    10    31    1
    35    12    32    1
    36    15    33    1
    37    17    34    1
    38    19    35    1
    39    20    36    1
