@<TRIPOS>MOLECULE
*****
 42 46 0 0 0
SMALL
GASTEIGER

@<TRIPOS>ATOM
      1 C          -3.6215   -2.4597    0.0471 C.3     1  UNL1        0.0059
      2 N          -2.9684   -1.1547    0.0296 N.pl3   1  UNL1       -0.3003
      3 C          -3.7633    0.0180    0.1127 C.ar    1  UNL1        0.0554
      4 C          -5.1236   -0.0072    0.4747 C.ar    1  UNL1       -0.0385
      5 C          -5.8763    1.1651    0.5593 C.ar    1  UNL1       -0.0599
      6 C          -5.2797    2.3898    0.2983 C.ar    1  UNL1       -0.0599
      7 C          -3.9289    2.4453   -0.0483 C.ar    1  UNL1       -0.0385
      8 C          -3.1501    1.2775   -0.1563 C.ar    1  UNL1        0.0554
      9 N          -1.7721    1.3026   -0.4939 N.pl3   1  UNL1       -0.3003
     10 C          -1.1958    2.5280   -1.0390 C.3     1  UNL1        0.0059
     11 C          -0.9390    0.1710   -0.2936 C.ar    1  UNL1        0.0561
     12 C           0.4685    0.2498   -0.3210 C.ar    1  UNL1       -0.0263
     13 C           1.2808   -0.8747   -0.1108 C.ar    1  UNL1        0.0388
     14 C           2.7400   -0.7955   -0.1420 C.ar    1  UNL1        0.2285
     15 N           3.6265   -1.7587    0.0469 N.ar    1  UNL1       -0.2090
     16 C           4.8341   -1.1252   -0.0972 C.ar    1  UNL1        0.1099
     17 C           6.1458   -1.6089   -0.0112 C.ar    1  UNL1       -0.0326
     18 C           7.1991   -0.7028   -0.2102 C.ar    1  UNL1       -0.0595
     19 C           6.9502    0.6480   -0.4874 C.ar    1  UNL1       -0.0582
     20 C           5.6441    1.1456   -0.5764 C.ar    1  UNL1       -0.0171
     21 C           4.6314    0.2164   -0.3730 C.ar    1  UNL1        0.1557
     22 O           3.2866    0.4377   -0.4045 O.2     1  UNL1       -0.4353
     23 C           0.6638   -2.0997    0.1478 C.ar    1  UNL1       -0.0476
     24 C          -0.7290   -2.2029    0.1976 C.ar    1  UNL1       -0.0378
     25 C          -1.5533   -1.0872   -0.0260 C.ar    1  UNL1        0.0554
     26 H          -3.7391   -2.8180    1.0753 H       1  UNL1        0.0432
     27 H          -3.0662   -3.2097   -0.5274 H       1  UNL1        0.0432
     28 H          -4.6055   -2.4380   -0.4349 H       1  UNL1        0.0432
     29 H          -5.6224   -0.9376    0.7242 H       1  UNL1        0.0637
     30 H          -6.9239    1.1182    0.8440 H       1  UNL1        0.0618
     31 H          -5.8579    3.3064    0.3777 H       1  UNL1        0.0618
     32 H          -3.4953    3.4271   -0.2059 H       1  UNL1        0.0637
     33 H          -1.9174    3.0972   -1.6360 H       1  UNL1        0.0432
     34 H          -0.8204    3.1683   -0.2337 H       1  UNL1        0.0432
     35 H          -0.3785    2.3253   -1.7404 H       1  UNL1        0.0432
     36 H           0.9542    1.2071   -0.4823 H       1  UNL1        0.0644
     37 H           6.3342   -2.6547    0.2035 H       1  UNL1        0.0640
     38 H           8.2260   -1.0579   -0.1477 H       1  UNL1        0.0618
     39 H           7.7892    1.3255   -0.6366 H       1  UNL1        0.0619
     40 H           5.4318    2.1854   -0.7893 H       1  UNL1        0.0655
     41 H           1.2678   -2.9879    0.3281 H       1  UNL1        0.0626
     42 H          -1.1466   -3.1743    0.4408 H       1  UNL1        0.0637
@<TRIPOS>BOND
     1     1     2    1
     2     2     3    1
     3     3     4   ar
     4     4     5   ar
     5     5     6   ar
     6     6     7   ar
     7     7     8   ar
     8     8     9    1
     9     9    10    1
    10     9    11    1
    11    11    12   ar
    12    12    13   ar
    13    13    14    1
    14    14    15   ar
    15    15    16   ar
    16    16    17   ar
    17    17    18   ar
    18    18    19   ar
    19    19    20   ar
    20    20    21   ar
    21    21    22   ar
    22    13    23   ar
    23    23    24   ar
    24    24    25   ar
    25    25     2    1
    26     8     3   ar
    27    25    11   ar
    28    22    14   ar
    29    21    16   ar
    30     1    26    1
    31     1    27    1
    32     1    28    1
    33     4    29    1
    34     5    30    1
    35     6    31    1
    36     7    32    1
    37    10    33    1
    38    10    34    1
    39    10    35    1
    40    12    36    1
    41    17    37    1
    42    18    38    1
    43    19    39    1
    44    20    40    1
    45    23    41    1
    46    24    42    1
