@<TRIPOS>MOLECULE
*****
 39 42 0 0 0
SMALL
GASTEIGER

@<TRIPOS>ATOM
      1 C          -3.0357   -2.0197    0.7335 C.3     1  UNL1        0.0059
      2 N          -2.2609   -0.8537    0.3213 N.pl3   1  UNL1       -0.3003
      3 C          -2.9420    0.2893   -0.1734 C.ar    1  UNL1        0.0554
      4 C          -4.3338    0.4612   -0.0524 C.ar    1  UNL1       -0.0385
      5 C          -4.9718    1.6017   -0.5439 C.ar    1  UNL1       -0.0599
      6 C          -4.2286    2.6020   -1.1537 C.ar    1  UNL1       -0.0599
      7 C          -2.8452    2.4648   -1.2732 C.ar    1  UNL1       -0.0385
      8 C          -2.1791    1.3185   -0.8002 C.ar    1  UNL1        0.0554
      9 N          -0.7728    1.1608   -0.8913 N.pl3   1  UNL1       -0.3003
     10 C          -0.0252    1.9973   -1.8263 C.3     1  UNL1        0.0059
     11 C          -0.0887    0.1599   -0.1556 C.ar    1  UNL1        0.0560
     12 C           1.3120    0.1720    0.0136 C.ar    1  UNL1       -0.0293
     13 C           1.9936   -0.8256    0.7323 C.ar    1  UNL1        0.0036
     14 C           3.4620   -0.8165    0.8960 C.ar    1  UNL1        0.0916
     15 N           3.8736   -0.9897    2.1802 N.ar    1  UNL1       -0.2341
     16 C           5.1945   -0.9879    2.4087 C.ar    1  UNL1        0.1166
     17 N           6.1458   -0.8421    1.4786 N.ar    1  UNL1       -0.2424
     18 C           5.7045   -0.6880    0.2140 C.ar    1  UNL1        0.0487
     19 C           4.3704   -0.6676   -0.1419 C.ar    1  UNL1        0.0957
     20 C           4.0088   -0.5222   -1.5118 C.1     1  UNL1        0.1028
     21 N           3.7432   -0.3783   -2.6323 N.1     1  UNL1       -0.1908
     22 C           1.2228   -1.8268    1.3341 C.ar    1  UNL1       -0.0507
     23 C          -0.1700   -1.8460    1.2089 C.ar    1  UNL1       -0.0379
     24 C          -0.8503   -0.8716    0.4623 C.ar    1  UNL1        0.0554
     25 H          -3.9429   -2.1490    0.1326 H       1  UNL1        0.0432
     26 H          -3.3183   -1.9409    1.7886 H       1  UNL1        0.0432
     27 H          -2.4880   -2.9569    0.5835 H       1  UNL1        0.0432
     28 H          -4.9508   -0.2768    0.4489 H       1  UNL1        0.0637
     29 H          -6.0475    1.7109   -0.4353 H       1  UNL1        0.0618
     30 H          -4.7195    3.4978   -1.5242 H       1  UNL1        0.0618
     31 H          -2.2965    3.2870   -1.7206 H       1  UNL1        0.0637
     32 H          -0.6213    2.2756   -2.7029 H       1  UNL1        0.0432
     33 H           0.3202    2.9107   -1.3306 H       1  UNL1        0.0432
     34 H           0.8419    1.4761   -2.2482 H       1  UNL1        0.0432
     35 H           1.8843    1.0020   -0.3904 H       1  UNL1        0.0643
     36 H           5.5191   -1.1166    3.4357 H       1  UNL1        0.1047
     37 H           6.4924   -0.5811   -0.5291 H       1  UNL1        0.0844
     38 H           1.7052   -2.6008    1.9296 H       1  UNL1        0.0625
     39 H          -0.7052   -2.6297    1.7348 H       1  UNL1        0.0637
@<TRIPOS>BOND
     1     1     2    1
     2     2     3    1
     3     3     4   ar
     4     4     5   ar
     5     5     6   ar
     6     6     7   ar
     7     7     8   ar
     8     8     9    1
     9     9    10    1
    10     9    11    1
    11    11    12   ar
    12    12    13   ar
    13    13    14    1
    14    14    15   ar
    15    15    16   ar
    16    16    17   ar
    17    17    18   ar
    18    18    19   ar
    19    19    20    1
    20    20    21    3
    21    13    22   ar
    22    22    23   ar
    23    23    24   ar
    24    24     2    1
    25     8     3   ar
    26    24    11   ar
    27    19    14   ar
    28     1    25    1
    29     1    26    1
    30     1    27    1
    31     4    28    1
    32     5    29    1
    33     6    30    1
    34     7    31    1
    35    10    32    1
    36    10    33    1
    37    10    34    1
    38    12    35    1
    39    16    36    1
    40    18    37    1
    41    22    38    1
    42    23    39    1
