@<TRIPOS>MOLECULE
*****
 44 51 0 0 0
SMALL
GASTEIGER

@<TRIPOS>ATOM
      1 SI         -4.6715    1.6947   -1.5642 Si      1  UNL1        0.0000
      2 C          -6.0476    0.8323   -0.6436 C.2     1  UNL1        0.0000
      3 C          -5.6007   -0.1355    0.1728 C.2     1  UNL1        0.0000
      4 C          -4.1446   -0.2683    0.1519 C.ar    1  UNL1        0.0000
      5 C          -3.3762    0.5729   -0.7115 C.ar    1  UNL1        0.0000
      6 C          -1.9109    0.5398   -0.8135 C.ar    1  UNL1        0.0000
      7 C          -1.0412    1.1881   -1.7604 C.ar    1  UNL1        0.0000
      8 C          -1.4845    1.8675   -2.8750 C.ar    1  UNL1        0.0000
      9 S          -0.2224    2.5032   -3.8403 S.2     1  UNL1        0.0000
     10 C           0.9637    1.8334   -2.8142 C.ar    1  UNL1        0.0000
     11 C           0.4179    1.1386   -1.7538 C.ar    1  UNL1        0.0000
     12 C           1.2255    0.5082   -0.7702 C.ar    1  UNL1        0.0000
     13 C           2.6821    0.5212   -0.7792 C.ar    1  UNL1        0.0000
     14 C           3.4855    0.0100    0.2544 C.ar    1  UNL1        0.0000
     15 C           4.9332    0.0591    0.2427 C.ar    1  UNL1        0.0000
     16 C           5.8105    0.7835    1.0280 C.ar    1  UNL1        0.0000
     17 N           7.1542    0.5986    0.7621 N.ar    1  UNL1        0.0000
     18 C           7.2819   -0.2568   -0.2279 C.ar    1  UNL1        0.0000
     19 S           5.8256   -0.8767   -0.8873 S.2     1  UNL1        0.0000
     20 C           2.7155   -0.4350    1.3334 C.ar    1  UNL1        0.0000
     21 C           3.2592   -0.8858    2.5165 C.ar    1  UNL1        0.0000
     22 S           2.0557   -1.1795    3.6968 S.2     1  UNL1        0.0000
     23 C           0.8039   -0.7251    2.6179 C.ar    1  UNL1        0.0000
     24 C           1.2600   -0.4784    1.3394 C.ar    1  UNL1        0.0000
     25 C           0.4007   -0.1141    0.2399 C.ar    1  UNL1        0.0000
     26 C          -1.0886   -0.2482    0.1078 C.ar    1  UNL1        0.0000
     27 C          -1.9197   -1.1912    0.8141 C.ar    1  UNL1        0.0000
     28 C          -1.4464   -2.3505    1.3949 C.ar    1  UNL1        0.0000
     29 S          -2.6735   -3.2527    2.1837 S.2     1  UNL1        0.0000
     30 C          -3.8947   -2.1964    1.6156 C.ar    1  UNL1        0.0000
     31 C          -3.3682   -1.1868    0.8436 C.ar    1  UNL1        0.0000
     32 H          -4.5282    3.1171   -1.1685 H       1  UNL1        0.0000
     33 H          -4.7550    1.4510   -3.0260 H       1  UNL1        0.0000
     34 H          -7.0789    1.1149   -0.7904 H       1  UNL1        0.0000
     35 H          -6.2404   -0.7499    0.7902 H       1  UNL1        0.0000
     36 H          -2.4784    2.0403   -3.2437 H       1  UNL1        0.0000
     37 H           1.9991    1.9994   -3.0717 H       1  UNL1        0.0000
     38 H           3.2012    0.9726   -1.6234 H       1  UNL1        0.0000
     39 H           5.5209    1.4678    1.8171 H       1  UNL1        0.0000
     40 H           8.2486   -0.5561   -0.6114 H       1  UNL1        0.0000
     41 H           4.2979   -1.0216    2.7860 H       1  UNL1        0.0000
     42 H          -0.2033   -0.6789    3.0062 H       1  UNL1        0.0000
     43 H          -0.4400   -2.7432    1.4165 H       1  UNL1        0.0000
     44 H          -4.9278   -2.4154    1.8447 H       1  UNL1        0.0000
@<TRIPOS>BOND
     1     1     2    1
     2     2     3    2
     3     3     4    1
     4     4     5   ar
     5     5     6   ar
     6     6     7   ar
     7     7     8   ar
     8     8     9   ar
     9     9    10   ar
    10    10    11   ar
    11    11    12   ar
    12    12    13   ar
    13    13    14   ar
    14    14    15    1
    15    15    16   ar
    16    16    17   ar
    17    17    18   ar
    18    18    19   ar
    19    14    20   ar
    20    20    21   ar
    21    21    22   ar
    22    22    23   ar
    23    23    24   ar
    24    24    25   ar
    25    25    26   ar
    26    26    27   ar
    27    27    28   ar
    28    28    29   ar
    29    29    30   ar
    30    30    31   ar
    31     5     1    1
    32    26     6   ar
    33    31    27   ar
    34    31     4   ar
    35    11     7   ar
    36    25    12   ar
    37    19    15   ar
    38    24    20   ar
    39     1    32    1
    40     1    33    1
    41     2    34    1
    42     3    35    1
    43     8    36    1
    44    10    37    1
    45    13    38    1
    46    16    39    1
    47    18    40    1
    48    21    41    1
    49    23    42    1
    50    28    43    1
    51    30    44    1
