@<TRIPOS>MOLECULE
*****
 35 38 0 0 0
SMALL
GASTEIGER

@<TRIPOS>ATOM
      1 C          -1.7183   -2.8828   -0.1265 C.3     1  UNL1        0.0059
      2 N          -1.3310   -1.4762   -0.0892 N.pl3   1  UNL1       -0.3003
      3 C          -2.3257   -0.4799   -0.2686 C.ar    1  UNL1        0.0554
      4 C          -3.7042   -0.7613   -0.2158 C.ar    1  UNL1       -0.0385
      5 C          -4.6590    0.2428   -0.3838 C.ar    1  UNL1       -0.0599
      6 C          -4.2547    1.5529   -0.5931 C.ar    1  UNL1       -0.0599
      7 C          -2.8944    1.8625   -0.6352 C.ar    1  UNL1       -0.0385
      8 C          -1.9099    0.8675   -0.4843 C.ar    1  UNL1        0.0554
      9 N          -0.5202    1.1524   -0.5100 N.pl3   1  UNL1       -0.3003
     10 C          -0.0686    2.4550   -0.9902 C.3     1  UNL1        0.0059
     11 C           0.4379    0.2119   -0.0497 C.ar    1  UNL1        0.0560
     12 C           1.7741    0.5628    0.2287 C.ar    1  UNL1       -0.0277
     13 C           2.7071   -0.3761    0.6936 C.ar    1  UNL1        0.0243
     14 C           4.0832    0.0273    0.9671 C.ar    1  UNL1        0.2019
     15 N           4.5269    1.3207    0.7713 N.ar    1  UNL1       -0.1942
     16 C           5.7824    1.2414    1.1297 C.ar    1  UNL1        0.2147
     17 O           6.1628    0.0053    1.5326 O.2     1  UNL1       -0.3411
     18 N           5.0349   -0.8060    1.4252 N.ar    1  UNL1       -0.0564
     19 C           2.2870   -1.6911    0.8983 C.ar    1  UNL1       -0.0491
     20 C           0.9628   -2.0612    0.6453 C.ar    1  UNL1       -0.0379
     21 C           0.0214   -1.1344    0.1650 C.ar    1  UNL1        0.0554
     22 H          -2.5503   -3.0661   -0.8158 H       1  UNL1        0.0432
     23 H          -2.0030   -3.2306    0.8722 H       1  UNL1        0.0432
     24 H          -0.9163   -3.5243   -0.5090 H       1  UNL1        0.0432
     25 H          -4.0667   -1.7642   -0.0170 H       1  UNL1        0.0637
     26 H          -5.7170   -0.0006   -0.3356 H       1  UNL1        0.0618
     27 H          -4.9944    2.3404   -0.7094 H       1  UNL1        0.0618
     28 H          -2.6251    2.9055   -0.7628 H       1  UNL1        0.0637
     29 H          -0.0137    3.1721   -0.1642 H       1  UNL1        0.0432
     30 H          -0.7244    2.8615   -1.7683 H       1  UNL1        0.0432
     31 H           0.9115    2.4000   -1.4775 H       1  UNL1        0.0432
     32 H           2.1050    1.5905    0.1106 H       1  UNL1        0.0644
     33 H           6.5356    2.0141    1.1454 H       1  UNL1        0.1283
     34 H           2.9794   -2.4437    1.2708 H       1  UNL1        0.0625
     35 H           0.6847   -3.0881    0.8589 H       1  UNL1        0.0637
@<TRIPOS>BOND
     1     1     2    1
     2     2     3    1
     3     3     4   ar
     4     4     5   ar
     5     5     6   ar
     6     6     7   ar
     7     7     8   ar
     8     8     9    1
     9     9    10    1
    10     9    11    1
    11    11    12   ar
    12    12    13   ar
    13    13    14    1
    14    14    15   ar
    15    15    16   ar
    16    16    17   ar
    17    17    18   ar
    18    13    19   ar
    19    19    20   ar
    20    20    21   ar
    21    21     2    1
    22     8     3   ar
    23    21    11   ar
    24    18    14   ar
    25     1    22    1
    26     1    23    1
    27     1    24    1
    28     4    25    1
    29     5    26    1
    30     6    27    1
    31     7    28    1
    32    10    29    1
    33    10    30    1
    34    10    31    1
    35    12    32    1
    36    16    33    1
    37    19    34    1
    38    20    35    1
