@<TRIPOS>MOLECULE
*****
 44 49 0 0 0
SMALL
GASTEIGER

@<TRIPOS>ATOM
      1 C          -5.1256    1.8392   -0.1451 C.3     1  UNL1        0.0060
      2 N          -3.8324    1.1966    0.0659 N.pl3   1  UNL1       -0.2975
      3 C          -3.5863    0.4869    1.2537 C.ar    1  UNL1        0.0766
      4 C          -4.5355    0.2607    2.2615 C.ar    1  UNL1       -0.0368
      5 C          -4.2097   -0.4553    3.4212 C.ar    1  UNL1       -0.0598
      6 C          -2.9271   -0.9657    3.5953 C.ar    1  UNL1       -0.0582
      7 C          -1.9710   -0.7657    2.6056 C.ar    1  UNL1       -0.0175
      8 C          -2.3033   -0.0527    1.4491 C.ar    1  UNL1        0.1498
      9 O          -1.2921    0.0863    0.5247 O.3     1  UNL1       -0.4516
     10 C          -1.5987    0.6325   -0.7115 C.ar    1  UNL1        0.1589
     11 C          -0.5779    0.5988   -1.6905 C.ar    1  UNL1        0.0445
     12 C           0.7788    0.0742   -1.4301 C.ar    1  UNL1        0.0765
     13 C           1.5109    0.4337   -0.2974 C.ar    1  UNL1       -0.0116
     14 C           2.7868   -0.1189   -0.1862 C.ar    1  UNL1        0.0510
     15 N           3.7406    0.0254    0.7928 N.ar    1  UNL1       -0.3540
     16 C           4.8627   -0.7092    0.4907 C.ar    1  UNL1        0.0504
     17 C           6.0608   -0.8615    1.1853 C.ar    1  UNL1       -0.0196
     18 C           6.9896   -1.6905    0.5750 C.ar    1  UNL1        0.0295
     19 N           6.8040   -2.3289   -0.6012 N.ar    1  UNL1       -0.2625
     20 C           5.6279   -2.1665   -1.2568 C.ar    1  UNL1        0.0373
     21 C           4.6225   -1.3484   -0.7261 C.ar    1  UNL1        0.0269
     22 C           3.3103   -0.9732   -1.1531 C.ar    1  UNL1        0.0270
     23 C           2.5196   -1.2732   -2.2664 C.ar    1  UNL1        0.0380
     24 N           1.2774   -0.7437   -2.3955 N.ar    1  UNL1       -0.2541
     25 C          -0.8896    1.0874   -2.9707 C.ar    1  UNL1       -0.0489
     26 C          -2.1494    1.6052   -3.2594 C.ar    1  UNL1       -0.0592
     27 C          -3.1313    1.6508   -2.2691 C.ar    1  UNL1       -0.0367
     28 C          -2.8798    1.1765   -0.9740 C.ar    1  UNL1        0.0773
     29 H          -5.0442    2.7354   -0.7701 H       1  UNL1        0.0432
     30 H          -5.5659    2.2102    0.7864 H       1  UNL1        0.0432
     31 H          -5.8293    1.1430   -0.6140 H       1  UNL1        0.0432
     32 H          -5.5557    0.6175    2.1692 H       1  UNL1        0.0637
     33 H          -4.9658   -0.6174    4.1856 H       1  UNL1        0.0618
     34 H          -2.6764   -1.5241    4.4928 H       1  UNL1        0.0619
     35 H          -0.9697   -1.1698    2.7236 H       1  UNL1        0.0655
     36 H           1.1136    1.1091    0.4505 H       1  UNL1        0.0660
     37 H           3.6295    0.5914    1.6219 H       1  UNL1        0.1659
     38 H           6.2613   -0.3734    2.1299 H       1  UNL1        0.0653
     39 H           7.9555   -1.8700    1.0409 H       1  UNL1        0.0830
     40 H           5.5244   -2.6992   -2.1951 H       1  UNL1        0.0836
     41 H           2.8458   -1.9267   -3.0673 H       1  UNL1        0.0836
     42 H          -0.1358    1.0586   -3.7566 H       1  UNL1        0.0625
     43 H          -2.3680    1.9684   -4.2603 H       1  UNL1        0.0618
     44 H          -4.1016    2.0461   -2.5506 H       1  UNL1        0.0637
@<TRIPOS>BOND
     1     1     2    1
     2     2     3    1
     3     3     4   ar
     4     4     5   ar
     5     5     6   ar
     6     6     7   ar
     7     7     8   ar
     8     8     9    1
     9     9    10    1
    10    10    11   ar
    11    11    12    1
    12    12    13   ar
    13    13    14   ar
    14    14    15   ar
    15    15    16   ar
    16    16    17   ar
    17    17    18   ar
    18    18    19   ar
    19    19    20   ar
    20    20    21   ar
    21    21    22   ar
    22    22    23   ar
    23    23    24   ar
    24    11    25   ar
    25    25    26   ar
    26    26    27   ar
    27    27    28   ar
    28    28     2    1
    29     8     3   ar
    30    28    10   ar
    31    24    12   ar
    32    22    14   ar
    33    21    16   ar
    34     1    29    1
    35     1    30    1
    36     1    31    1
    37     4    32    1
    38     5    33    1
    39     6    34    1
    40     7    35    1
    41    13    36    1
    42    15    37    1
    43    17    38    1
    44    18    39    1
    45    20    40    1
    46    23    41    1
    47    25    42    1
    48    26    43    1
    49    27    44    1
