@<TRIPOS>MOLECULE
*****
 39 43 0 0 0
SMALL
GASTEIGER

@<TRIPOS>ATOM
      1 C          -4.1921   -1.7716   -0.0759 C.3     1  UNL1        0.0060
      2 N          -2.9772   -0.9640   -0.1029 N.pl3   1  UNL1       -0.2975
      3 C          -3.0573    0.4130   -0.3772 C.ar    1  UNL1        0.0766
      4 C          -4.2540    1.1288   -0.5292 C.ar    1  UNL1       -0.0368
      5 C          -4.2500    2.5009   -0.8143 C.ar    1  UNL1       -0.0598
      6 C          -3.0474    3.1877   -0.9489 C.ar    1  UNL1       -0.0582
      7 C          -1.8471    2.5043   -0.7882 C.ar    1  UNL1       -0.0175
      8 C          -1.8575    1.1365   -0.4971 C.ar    1  UNL1        0.1498
      9 O          -0.6205    0.5514   -0.3420 O.3     1  UNL1       -0.4516
     10 C          -0.5680   -0.7536    0.1161 C.ar    1  UNL1        0.1588
     11 C           0.7087   -1.2680    0.4273 C.ar    1  UNL1        0.0424
     12 C           1.9268   -0.4633    0.2993 C.ar    1  UNL1        0.0511
     13 C           2.2278    0.8009    0.7749 C.ar    1  UNL1       -0.0271
     14 C           3.5507    1.1314    0.3725 C.ar    1  UNL1        0.0183
     15 C           4.3833    2.2418    0.5544 C.ar    1  UNL1        0.0367
     16 N           5.6340    2.2591    0.0285 N.ar    1  UNL1       -0.2625
     17 C           6.0583    1.1864   -0.6759 C.ar    1  UNL1        0.0295
     18 C           5.3123    0.0411   -0.9131 C.ar    1  UNL1       -0.0196
     19 C           4.0341    0.0486   -0.3593 C.ar    1  UNL1        0.0498
     20 N           3.0354   -0.8960   -0.3939 N.ar    1  UNL1       -0.3540
     21 C           0.8099   -2.5860    0.8879 C.ar    1  UNL1       -0.0490
     22 C          -0.3314   -3.3690    1.0388 C.ar    1  UNL1       -0.0592
     23 C          -1.5895   -2.8487    0.7224 C.ar    1  UNL1       -0.0367
     24 C          -1.7377   -1.5386    0.2431 C.ar    1  UNL1        0.0773
     25 H          -4.0085   -2.8078   -0.3799 H       1  UNL1        0.0432
     26 H          -4.9440   -1.4198   -0.7903 H       1  UNL1        0.0432
     27 H          -4.6318   -1.7702    0.9271 H       1  UNL1        0.0432
     28 H          -5.2197    0.6478   -0.4174 H       1  UNL1        0.0637
     29 H          -5.1922    3.0314   -0.9282 H       1  UNL1        0.0618
     30 H          -3.0446    4.2510   -1.1718 H       1  UNL1        0.0619
     31 H          -0.9009    3.0295   -0.8836 H       1  UNL1        0.0655
     32 H           1.5597    1.4229    1.3573 H       1  UNL1        0.0645
     33 H           4.0802    3.1216    1.1096 H       1  UNL1        0.0836
     34 H           7.0685    1.2735   -1.0682 H       1  UNL1        0.0830
     35 H           5.7014   -0.7894   -1.4865 H       1  UNL1        0.0653
     36 H           3.0972   -1.7795   -0.8793 H       1  UNL1        0.1659
     37 H           1.7759   -3.0040    1.1615 H       1  UNL1        0.0625
     38 H          -0.2458   -4.3855    1.4152 H       1  UNL1        0.0618
     39 H          -2.4472   -3.4946    0.8790 H       1  UNL1        0.0637
@<TRIPOS>BOND
     1     1     2    1
     2     2     3    1
     3     3     4   ar
     4     4     5   ar
     5     5     6   ar
     6     6     7   ar
     7     7     8   ar
     8     8     9    1
     9     9    10    1
    10    10    11   ar
    11    11    12    1
    12    12    13   ar
    13    13    14   ar
    14    14    15   ar
    15    15    16   ar
    16    16    17   ar
    17    17    18   ar
    18    18    19   ar
    19    19    20   ar
    20    11    21   ar
    21    21    22   ar
    22    22    23   ar
    23    23    24   ar
    24    24     2    1
    25     8     3   ar
    26    24    10   ar
    27    20    12   ar
    28    19    14   ar
    29     1    25    1
    30     1    26    1
    31     1    27    1
    32     4    28    1
    33     5    29    1
    34     6    30    1
    35     7    31    1
    36    13    32    1
    37    15    33    1
    38    17    34    1
    39    18    35    1
    40    20    36    1
    41    21    37    1
    42    22    38    1
    43    23    39    1
