@<TRIPOS>MOLECULE
*****
 44 48 0 0 0
SMALL
GASTEIGER

@<TRIPOS>ATOM
      1 C          -5.4149   -1.1825    0.2853 C.3     1  UNL1        0.0060
      2 N          -4.0372   -0.7110    0.3918 N.pl3   1  UNL1       -0.2975
      3 C          -3.7475    0.3851    1.2283 C.ar    1  UNL1        0.0766
      4 C          -4.6898    1.0496    2.0346 C.ar    1  UNL1       -0.0368
      5 C          -4.3342    2.1639    2.8121 C.ar    1  UNL1       -0.0598
      6 C          -3.0239    2.6310    2.8060 C.ar    1  UNL1       -0.0582
      7 C          -2.0641    1.9729    2.0365 C.ar    1  UNL1       -0.0175
      8 C          -2.4253    0.8622    1.2667 C.ar    1  UNL1        0.1498
      9 O          -1.4026    0.2810    0.5557 O.3     1  UNL1       -0.4517
     10 C          -1.6902   -0.8372   -0.2060 C.ar    1  UNL1        0.1574
     11 C          -0.6025   -1.4056   -0.9036 C.ar    1  UNL1        0.0277
     12 C           0.7514   -0.8520   -0.8121 C.ar    1  UNL1        0.0038
     13 C           1.2673   -0.0061   -1.7913 C.ar    1  UNL1       -0.0504
     14 C           2.5663    0.4931   -1.6689 C.ar    1  UNL1       -0.0336
     15 C           3.3411    0.1489   -0.5601 C.ar    1  UNL1        0.0891
     16 C           4.7302    0.6393   -0.3826 C.ar    1  UNL1        0.0891
     17 C           5.5250    0.2425    0.6965 C.ar    1  UNL1       -0.0342
     18 C           6.8233    0.7342    0.8159 C.ar    1  UNL1       -0.0583
     19 C           7.3065    1.6144   -0.1437 C.ar    1  UNL1       -0.0436
     20 C           6.4703    1.9593   -1.1915 C.ar    1  UNL1        0.0283
     21 N           5.2064    1.5004   -1.3280 N.ar    1  UNL1       -0.2534
     22 N           2.8513   -0.6728    0.4136 N.ar    1  UNL1       -0.2528
     23 C           1.5857   -1.1385    0.2674 C.ar    1  UNL1        0.0361
     24 C          -0.8381   -2.5307   -1.6999 C.ar    1  UNL1       -0.0503
     25 C          -2.1114   -3.0875   -1.7768 C.ar    1  UNL1       -0.0592
     26 C          -3.1744   -2.5164   -1.0742 C.ar    1  UNL1       -0.0367
     27 C          -2.9984   -1.3661   -0.2932 C.ar    1  UNL1        0.0773
     28 H          -5.6396   -1.8847    1.0916 H       1  UNL1        0.0432
     29 H          -6.1393   -0.3636    0.3197 H       1  UNL1        0.0432
     30 H          -5.6275   -1.6707   -0.6680 H       1  UNL1        0.0432
     31 H          -5.7230    0.7235    2.0876 H       1  UNL1        0.0637
     32 H          -5.0890    2.6689    3.4205 H       1  UNL1        0.0618
     33 H          -2.7500    3.5028    3.3993 H       1  UNL1        0.0619
     34 H          -1.0349    2.3216    2.0316 H       1  UNL1        0.0655
     35 H           0.6657    0.2751   -2.6486 H       1  UNL1        0.0625
     36 H           2.9659    1.1491   -2.4369 H       1  UNL1        0.0640
     37 H           5.1363   -0.4385    1.4461 H       1  UNL1        0.0639
     38 H           7.4446    0.4329    1.6566 H       1  UNL1        0.0619
     39 H           8.3110    2.0158   -0.0818 H       1  UNL1        0.0633
     40 H           6.8051    2.6374   -1.9767 H       1  UNL1        0.0830
     41 H           1.2496   -1.7817    1.0763 H       1  UNL1        0.0836
     42 H          -0.0241   -2.9847   -2.2595 H       1  UNL1        0.0625
     43 H          -2.2811   -3.9706   -2.3890 H       1  UNL1        0.0618
     44 H          -4.1398   -3.0040   -1.1633 H       1  UNL1        0.0637
@<TRIPOS>BOND
     1     1     2    1
     2     2     3    1
     3     3     4   ar
     4     4     5   ar
     5     5     6   ar
     6     6     7   ar
     7     7     8   ar
     8     8     9    1
     9     9    10    1
    10    10    11   ar
    11    11    12    1
    12    12    13   ar
    13    13    14   ar
    14    14    15   ar
    15    15    16    1
    16    16    17   ar
    17    17    18   ar
    18    18    19   ar
    19    19    20   ar
    20    20    21   ar
    21    15    22   ar
    22    22    23   ar
    23    11    24   ar
    24    24    25   ar
    25    25    26   ar
    26    26    27   ar
    27    27     2    1
    28     8     3   ar
    29    27    10   ar
    30    23    12   ar
    31    21    16   ar
    32     1    28    1
    33     1    29    1
    34     1    30    1
    35     4    31    1
    36     5    32    1
    37     6    33    1
    38     7    34    1
    39    13    35    1
    40    14    36    1
    41    17    37    1
    42    18    38    1
    43    19    39    1
    44    20    40    1
    45    23    41    1
    46    24    42    1
    47    25    43    1
    48    26    44    1
