@<TRIPOS>MOLECULE
*****
 44 48 0 0 0
SMALL
GASTEIGER

@<TRIPOS>ATOM
      1 C          -5.2595   -1.4750   -0.2517 C.3     1  UNL1        0.0060
      2 N          -3.9489   -0.8455   -0.1307 N.pl3   1  UNL1       -0.2975
      3 C          -3.8528    0.5461    0.0466 C.ar    1  UNL1        0.0766
      4 C          -4.9470    1.4055    0.2245 C.ar    1  UNL1       -0.0368
      5 C          -4.7694    2.7860    0.3874 C.ar    1  UNL1       -0.0598
      6 C          -3.4912    3.3359    0.3813 C.ar    1  UNL1       -0.0582
      7 C          -2.3888    2.5038    0.2207 C.ar    1  UNL1       -0.0175
      8 C          -2.5721    1.1263    0.0632 C.ar    1  UNL1        0.1498
      9 O          -1.4200    0.3850   -0.0774 O.3     1  UNL1       -0.4517
     10 C          -1.5259   -0.9961   -0.0750 C.ar    1  UNL1        0.1574
     11 C          -0.3114   -1.7195   -0.0505 C.ar    1  UNL1        0.0263
     12 C           1.0044   -1.0563   -0.0612 C.ar    1  UNL1       -0.0143
     13 C           1.9001   -1.2118    1.0039 C.ar    1  UNL1       -0.0533
     14 C           3.1547   -0.5889    0.9866 C.ar    1  UNL1       -0.0519
     15 C           3.5640    0.2168   -0.0907 C.ar    1  UNL1        0.0019
     16 C           4.8879    0.8702   -0.0814 C.ar    1  UNL1        0.0890
     17 C           5.1602    2.0763   -0.7295 C.ar    1  UNL1        0.0535
     18 N           6.3791    2.6768   -0.7253 N.ar    1  UNL1       -0.2596
     19 C           7.3355    2.0237   -0.0333 C.ar    1  UNL1        0.0457
     20 C           7.0862    0.8332    0.6239 C.ar    1  UNL1        0.0464
     21 N           5.8706    0.2381    0.6172 N.ar    1  UNL1       -0.2520
     22 C           2.6631    0.3584   -1.1602 C.ar    1  UNL1       -0.0519
     23 C           1.4076   -0.2650   -1.1448 C.ar    1  UNL1       -0.0533
     24 C          -0.3792   -3.1202   -0.0147 C.ar    1  UNL1       -0.0504
     25 C          -1.6082   -3.7747   -0.0033 C.ar    1  UNL1       -0.0592
     26 C          -2.7964   -3.0409   -0.0374 C.ar    1  UNL1       -0.0367
     27 C          -2.7856   -1.6397   -0.0869 C.ar    1  UNL1        0.0773
     28 H          -5.6517   -1.7385    0.7364 H       1  UNL1        0.0432
     29 H          -5.2312   -2.3770   -0.8727 H       1  UNL1        0.0432
     30 H          -5.9865   -0.8318   -0.7589 H       1  UNL1        0.0432
     31 H          -5.9636    1.0286    0.2566 H       1  UNL1        0.0637
     32 H          -5.6352    3.4294    0.5235 H       1  UNL1        0.0618
     33 H          -3.3538    4.4061    0.5084 H       1  UNL1        0.0619
     34 H          -1.3847    2.9184    0.2239 H       1  UNL1        0.0655
     35 H           1.6251   -1.8153    1.8666 H       1  UNL1        0.0624
     36 H           3.8199   -0.7344    1.8370 H       1  UNL1        0.0624
     37 H           4.3942    2.6201   -1.2714 H       1  UNL1        0.0851
     38 H           8.3153    2.4866   -0.0186 H       1  UNL1        0.0845
     39 H           7.8624    0.3191    1.1787 H       1  UNL1        0.0845
     40 H           2.9254    0.9427   -2.0393 H       1  UNL1        0.0624
     41 H           0.7409   -0.1313   -1.9953 H       1  UNL1        0.0624
     42 H           0.5350   -3.7108    0.0003 H       1  UNL1        0.0625
     43 H          -1.6427   -4.8608    0.0322 H       1  UNL1        0.0618
     44 H          -3.7259   -3.5997   -0.0086 H       1  UNL1        0.0637
@<TRIPOS>BOND
     1     1     2    1
     2     2     3    1
     3     3     4   ar
     4     4     5   ar
     5     5     6   ar
     6     6     7   ar
     7     7     8   ar
     8     8     9    1
     9     9    10    1
    10    10    11   ar
    11    11    12    1
    12    12    13   ar
    13    13    14   ar
    14    14    15   ar
    15    15    16    1
    16    16    17   ar
    17    17    18   ar
    18    18    19   ar
    19    19    20   ar
    20    20    21   ar
    21    15    22   ar
    22    22    23   ar
    23    11    24   ar
    24    24    25   ar
    25    25    26   ar
    26    26    27   ar
    27    27     2    1
    28     8     3   ar
    29    27    10   ar
    30    23    12   ar
    31    21    16   ar
    32     1    28    1
    33     1    29    1
    34     1    30    1
    35     4    31    1
    36     5    32    1
    37     6    33    1
    38     7    34    1
    39    13    35    1
    40    14    36    1
    41    17    37    1
    42    19    38    1
    43    20    39    1
    44    22    40    1
    45    23    41    1
    46    24    42    1
    47    25    43    1
    48    26    44    1
