@<TRIPOS>MOLECULE
*****
 38 42 0 0 0
SMALL
GASTEIGER

@<TRIPOS>ATOM
      1 C          -3.6905   -2.0240   -0.9934 C.3     1  UNL1        0.0060
      2 N          -2.5998   -1.1530   -0.5683 N.pl3   1  UNL1       -0.2975
      3 C          -2.8796    0.1373   -0.0854 C.ar    1  UNL1        0.0766
      4 C          -4.1680    0.6394    0.1500 C.ar    1  UNL1       -0.0368
      5 C          -4.3656    1.9439    0.6221 C.ar    1  UNL1       -0.0598
      6 C          -3.2767    2.7730    0.8736 C.ar    1  UNL1       -0.0582
      7 C          -1.9883    2.2941    0.6631 C.ar    1  UNL1       -0.0175
      8 C          -1.7973    0.9890    0.1984 C.ar    1  UNL1        0.1498
      9 O          -0.4858    0.6010    0.0348 O.3     1  UNL1       -0.4517
     10 C          -0.2294   -0.7283   -0.2585 C.ar    1  UNL1        0.1574
     11 C           1.1278   -1.1239   -0.2482 C.ar    1  UNL1        0.0263
     12 C           2.2221   -0.1894    0.0743 C.ar    1  UNL1       -0.0121
     13 C           2.3051    0.4061    1.3488 C.ar    1  UNL1       -0.0518
     14 C           3.3338    1.2920    1.7000 C.ar    1  UNL1       -0.0342
     15 C           4.2826    1.5534    0.7140 C.ar    1  UNL1        0.0858
     16 N           5.4007    2.3369    0.6705 N.ar    1  UNL1       -0.2571
     17 N           6.0171    2.2683   -0.5207 N.ar    1  UNL1       -0.0673
     18 N           5.3125    1.4422   -1.2848 N.ar    1  UNL1       -0.1297
     19 C           4.2456    0.9910   -0.5534 C.ar    1  UNL1        0.1130
     20 C           3.2087    0.1089   -0.8873 C.ar    1  UNL1       -0.0246
     21 C           1.4275   -2.4610   -0.5485 C.ar    1  UNL1       -0.0504
     22 C           0.4138   -3.3709   -0.8374 C.ar    1  UNL1       -0.0592
     23 C          -0.9212   -2.9593   -0.8419 C.ar    1  UNL1       -0.0367
     24 C          -1.2741   -1.6304   -0.5676 C.ar    1  UNL1        0.0773
     25 H          -4.0598   -2.6159   -0.1491 H       1  UNL1        0.0432
     26 H          -4.5283   -1.4654   -1.4243 H       1  UNL1        0.0432
     27 H          -3.3892   -2.7046   -1.7971 H       1  UNL1        0.0432
     28 H          -5.0509    0.0304   -0.0125 H       1  UNL1        0.0637
     29 H          -5.3754    2.3085    0.7940 H       1  UNL1        0.0618
     30 H          -3.4307    3.7854    1.2365 H       1  UNL1        0.0619
     31 H          -1.1292    2.9287    0.8609 H       1  UNL1        0.0655
     32 H           1.5434    0.1751    2.0942 H       1  UNL1        0.0624
     33 H           3.3782    1.7421    2.6854 H       1  UNL1        0.0639
     34 H           5.7960    2.9281    1.3906 H       1  UNL1        0.1907
     35 H           3.1750   -0.3239   -1.8819 H       1  UNL1        0.0646
     36 H           2.4602   -2.8049   -0.5426 H       1  UNL1        0.0625
     37 H           0.6621   -4.4070   -1.0547 H       1  UNL1        0.0618
     38 H          -1.6725   -3.7129   -1.0535 H       1  UNL1        0.0637
@<TRIPOS>BOND
     1     1     2    1
     2     2     3    1
     3     3     4   ar
     4     4     5   ar
     5     5     6   ar
     6     6     7   ar
     7     7     8   ar
     8     8     9    1
     9     9    10    1
    10    10    11   ar
    11    11    12    1
    12    12    13   ar
    13    13    14   ar
    14    14    15   ar
    15    15    16   ar
    16    16    17   ar
    17    17    18   ar
    18    18    19   ar
    19    19    20   ar
    20    11    21   ar
    21    21    22   ar
    22    22    23   ar
    23    23    24   ar
    24    24     2    1
    25     8     3   ar
    26    24    10   ar
    27    20    12   ar
    28    19    15   ar
    29     1    25    1
    30     1    26    1
    31     1    27    1
    32     4    28    1
    33     5    29    1
    34     6    30    1
    35     7    31    1
    36    13    32    1
    37    14    33    1
    38    16    34    1
    39    20    35    1
    40    21    36    1
    41    22    37    1
    42    23    38    1
