@<TRIPOS>MOLECULE
*****
 42 46 0 0 0
SMALL
GASTEIGER

@<TRIPOS>ATOM
      1 C          -4.5499   -1.9141    0.4823 C.3     1  UNL1        0.0060
      2 N          -3.3484   -1.1085    0.2907 N.pl3   1  UNL1       -0.2975
      3 C          -3.4580    0.2815    0.1090 C.ar    1  UNL1        0.0766
      4 C          -4.6541    1.0075    0.2080 C.ar    1  UNL1       -0.0368
      5 C          -4.6833    2.3934    0.0031 C.ar    1  UNL1       -0.0598
      6 C          -3.5141    3.0842   -0.3002 C.ar    1  UNL1       -0.0582
      7 C          -2.3124    2.3902   -0.3895 C.ar    1  UNL1       -0.0175
      8 C          -2.2886    1.0079   -0.1787 C.ar    1  UNL1        0.1498
      9 O          -1.0505    0.4125   -0.2757 O.3     1  UNL1       -0.4517
     10 C          -0.9382   -0.9231    0.0727 C.ar    1  UNL1        0.1574
     11 C           0.3718   -1.4513    0.1170 C.ar    1  UNL1        0.0263
     12 C           1.5573   -0.6423   -0.2136 C.ar    1  UNL1       -0.0123
     13 C           1.7659   -0.1755   -1.5230 C.ar    1  UNL1       -0.0531
     14 C           2.8965    0.5779   -1.8444 C.ar    1  UNL1       -0.0484
     15 C           3.8285    0.8761   -0.8489 C.ar    1  UNL1        0.0450
     16 C           5.0411    1.6737   -1.1684 C.ar    1  UNL1        0.1894
     17 O           5.2731    2.0805   -2.3012 O.2     1  UNL1       -0.2872
     18 C           5.9750    1.9776   -0.0559 C.ar    1  UNL1        0.0017
     19 C           5.6937    1.4942    1.1587 C.ar    1  UNL1        0.0058
     20 N           4.6072    0.7148    1.4508 N.ar    1  UNL1       -0.3604
     21 C           3.6375    0.4401    0.4732 C.ar    1  UNL1        0.0507
     22 C           2.5102   -0.3310    0.7746 C.ar    1  UNL1       -0.0298
     23 C           0.5321   -2.7924    0.4938 C.ar    1  UNL1       -0.0504
     24 C          -0.5721   -3.5771    0.8162 C.ar    1  UNL1       -0.0592
     25 C          -1.8599   -3.0379    0.7589 C.ar    1  UNL1       -0.0367
     26 C          -2.0757   -1.7068    0.3748 C.ar    1  UNL1        0.0773
     27 H          -5.4083   -1.5226   -0.0740 H       1  UNL1        0.0432
     28 H          -4.8122   -1.9651    1.5444 H       1  UNL1        0.0432
     29 H          -4.4325   -2.9332    0.0983 H       1  UNL1        0.0432
     30 H          -5.5914    0.5227    0.4596 H       1  UNL1        0.0637
     31 H          -5.6246    2.9315    0.0846 H       1  UNL1        0.0618
     32 H          -3.5373    4.1586   -0.4602 H       1  UNL1        0.0619
     33 H          -1.3910    2.9185   -0.6177 H       1  UNL1        0.0655
     34 H           1.0415   -0.4029   -2.3037 H       1  UNL1        0.0624
     35 H           3.0476    0.9279   -2.8627 H       1  UNL1        0.0625
     36 H           6.8411    2.5857   -0.2752 H       1  UNL1        0.0670
     37 H           6.3385    1.6996    2.0085 H       1  UNL1        0.0808
     38 H           4.3740    0.5526    2.4237 H       1  UNL1        0.1653
     39 H           2.3593   -0.6897    1.7902 H       1  UNL1        0.0644
     40 H           1.5259   -3.2344    0.5332 H       1  UNL1        0.0625
     41 H          -0.4318   -4.6137    1.1129 H       1  UNL1        0.0618
     42 H          -2.6831   -3.6875    1.0373 H       1  UNL1        0.0637
@<TRIPOS>BOND
     1     1     2    1
     2     2     3    1
     3     3     4   ar
     4     4     5   ar
     5     5     6   ar
     6     6     7   ar
     7     7     8   ar
     8     8     9    1
     9     9    10    1
    10    10    11   ar
    11    11    12    1
    12    12    13   ar
    13    13    14   ar
    14    14    15   ar
    15    15    16   ar
    16    16    17    2
    17    16    18   ar
    18    18    19   ar
    19    19    20   ar
    20    20    21   ar
    21    21    22   ar
    22    11    23   ar
    23    23    24   ar
    24    24    25   ar
    25    25    26   ar
    26    26     2    1
    27     8     3   ar
    28    26    10   ar
    29    22    12   ar
    30    21    15   ar
    31     1    27    1
    32     1    28    1
    33     1    29    1
    34     4    30    1
    35     5    31    1
    36     6    32    1
    37     7    33    1
    38    13    34    1
    39    14    35    1
    40    18    36    1
    41    19    37    1
    42    20    38    1
    43    22    39    1
    44    23    40    1
    45    24    41    1
    46    25    42    1
