@<TRIPOS>MOLECULE
*****
 45 50 0 0 0
SMALL
GASTEIGER

@<TRIPOS>ATOM
      1 C          -5.3727   -1.2812    0.0856 C.3     1  UNL1        0.0060
      2 N          -4.0255   -0.7360   -0.0427 N.pl3   1  UNL1       -0.2975
      3 C          -3.8451    0.6300   -0.3230 C.ar    1  UNL1        0.0766
      4 C          -4.8784    1.5768   -0.3791 C.ar    1  UNL1       -0.0368
      5 C          -4.6181    2.9213   -0.6763 C.ar    1  UNL1       -0.0598
      6 C          -3.3162    3.3484   -0.9195 C.ar    1  UNL1       -0.0582
      7 C          -2.2719    2.4325   -0.8552 C.ar    1  UNL1       -0.0175
      8 C          -2.5373    1.0935   -0.5515 C.ar    1  UNL1        0.1498
      9 O          -1.4375    0.2665   -0.4967 O.3     1  UNL1       -0.4517
     10 C          -1.6150   -1.0266   -0.0335 C.ar    1  UNL1        0.1574
     11 C          -0.4413   -1.7863    0.1744 C.ar    1  UNL1        0.0263
     12 C           0.9068   -1.2390   -0.0653 C.ar    1  UNL1       -0.0123
     13 C           1.7291   -1.7838   -1.0629 C.ar    1  UNL1       -0.0532
     14 C           3.0183   -1.2879   -1.3061 C.ar    1  UNL1       -0.0514
     15 C           3.5050   -0.2171   -0.5317 C.ar    1  UNL1        0.0090
     16 C           2.6782    0.3164    0.4591 C.ar    1  UNL1        0.0492
     17 C           1.3888   -0.1701    0.7128 C.ar    1  UNL1       -0.0299
     18 N           3.3756    1.3381    1.0619 N.ar    1  UNL1       -0.3390
     19 C           4.6105    1.4733    0.4951 C.ar    1  UNL1        0.1391
     20 N           5.5236    2.3878    0.8721 N.ar    1  UNL1       -0.2375
     21 C           6.6663    2.3149    0.1517 C.ar    1  UNL1        0.0299
     22 C           6.9223    1.4147   -0.8749 C.ar    1  UNL1       -0.0429
     23 C           5.9389    0.4878   -1.2235 C.ar    1  UNL1       -0.0490
     24 C           4.7300    0.5184   -0.5070 C.ar    1  UNL1        0.0264
     25 C          -0.5803   -3.1029    0.6375 C.ar    1  UNL1       -0.0504
     26 C          -1.8399   -3.6389    0.8925 C.ar    1  UNL1       -0.0592
     27 C          -2.9877   -2.8712    0.6798 C.ar    1  UNL1       -0.0367
     28 C          -2.9056   -1.5559    0.2009 C.ar    1  UNL1        0.0773
     29 H          -5.7214   -1.2028    1.1208 H       1  UNL1        0.0432
     30 H          -5.4279   -2.3295   -0.2274 H       1  UNL1        0.0432
     31 H          -6.0924   -0.7756   -0.5671 H       1  UNL1        0.0432
     32 H          -5.9089    1.3022   -0.1807 H       1  UNL1        0.0637
     33 H          -5.4380    3.6342   -0.7149 H       1  UNL1        0.0618
     34 H          -3.1149    4.3904   -1.1525 H       1  UNL1        0.0619
     35 H          -1.2498    2.7531   -1.0366 H       1  UNL1        0.0655
     36 H           1.3628   -2.6048   -1.6769 H       1  UNL1        0.0624
     37 H           3.6303   -1.7260   -2.0887 H       1  UNL1        0.0624
     38 H           0.7710    0.2695    1.4914 H       1  UNL1        0.0644
     39 H           3.0407    1.9177    1.8152 H       1  UNL1        0.1673
     40 H           7.4222    3.0438    0.4356 H       1  UNL1        0.0830
     41 H           7.8730    1.4338   -1.3966 H       1  UNL1        0.0633
     42 H           6.1026   -0.2299   -2.0199 H       1  UNL1        0.0625
     43 H           0.3024   -3.7133    0.8187 H       1  UNL1        0.0625
     44 H          -1.9298   -4.6563    1.2650 H       1  UNL1        0.0618
     45 H          -3.9424   -3.3302    0.9141 H       1  UNL1        0.0637
@<TRIPOS>BOND
     1     1     2    1
     2     2     3    1
     3     3     4   ar
     4     4     5   ar
     5     5     6   ar
     6     6     7   ar
     7     7     8   ar
     8     8     9    1
     9     9    10    1
    10    10    11   ar
    11    11    12    1
    12    12    13   ar
    13    13    14   ar
    14    14    15   ar
    15    15    16   ar
    16    16    17   ar
    17    16    18   ar
    18    18    19   ar
    19    19    20   ar
    20    20    21   ar
    21    21    22   ar
    22    22    23   ar
    23    23    24   ar
    24    11    25   ar
    25    25    26   ar
    26    26    27   ar
    27    27    28   ar
    28    28     2    1
    29     8     3   ar
    30    28    10   ar
    31    17    12   ar
    32    24    19   ar
    33    24    15   ar
    34     1    29    1
    35     1    30    1
    36     1    31    1
    37     4    32    1
    38     5    33    1
    39     6    34    1
    40     7    35    1
    41    13    36    1
    42    14    37    1
    43    17    38    1
    44    18    39    1
    45    21    40    1
    46    22    41    1
    47    23    42    1
    48    25    43    1
    49    26    44    1
    50    27    45    1
