@<TRIPOS>MOLECULE
*****
 42 46 0 0 0
SMALL
GASTEIGER

@<TRIPOS>ATOM
      1 C          -4.5545   -1.9303   -0.0190 C.3     1  UNL1        0.0060
      2 N          -3.3654   -1.0846   -0.0384 N.pl3   1  UNL1       -0.2975
      3 C          -3.4842    0.2977    0.1894 C.ar    1  UNL1        0.0766
      4 C          -4.7008    0.9834    0.3199 C.ar    1  UNL1       -0.0368
      5 C          -4.7359    2.3641    0.5563 C.ar    1  UNL1       -0.0598
      6 C          -3.5533    3.0897    0.6624 C.ar    1  UNL1       -0.0582
      7 C          -2.3339    2.4360    0.5221 C.ar    1  UNL1       -0.0175
      8 C          -2.3055    1.0590    0.2799 C.ar    1  UNL1        0.1498
      9 O          -1.0524    0.5038    0.1423 O.3     1  UNL1       -0.4517
     10 C          -0.9642   -0.8148   -0.2736 C.ar    1  UNL1        0.1574
     11 C           0.3318   -1.2934   -0.5753 C.ar    1  UNL1        0.0263
     12 C           1.5309   -0.4420   -0.4756 C.ar    1  UNL1       -0.0136
     13 C           1.6666    0.7114   -1.2673 C.ar    1  UNL1       -0.0532
     14 C           2.8026    1.5208   -1.1755 C.ar    1  UNL1       -0.0497
     15 C           3.8280    1.1837   -0.2874 C.ar    1  UNL1        0.0325
     16 C           3.7146    0.0403    0.5016 C.ar    1  UNL1        0.0330
     17 C           2.5729   -0.7684    0.4084 C.ar    1  UNL1       -0.0424
     18 C           4.7935   -0.3299    1.4390 C.2     1  UNL1        0.1869
     19 O           4.7341   -1.3371    2.1318 O.2     1  UNL1       -0.2873
     20 C           5.9705    0.5573    1.5185 C.2     1  UNL1       -0.0107
     21 C           6.0772    1.6539    0.7648 C.2     1  UNL1       -0.0107
     22 C           5.0238    2.0442   -0.1925 C.2     1  UNL1        0.1869
     23 O           5.1545    3.0509   -0.8764 O.2     1  UNL1       -0.2873
     24 C           0.4616   -2.6271   -0.9899 C.ar    1  UNL1       -0.0504
     25 C          -0.6567   -3.4482   -1.1098 C.ar    1  UNL1       -0.0592
     26 C          -1.9282   -2.9550   -0.8070 C.ar    1  UNL1       -0.0367
     27 C          -2.1120   -1.6359   -0.3698 C.ar    1  UNL1        0.0773
     28 H          -4.3350   -2.9472    0.3238 H       1  UNL1        0.0432
     29 H          -5.3099   -1.5732    0.6891 H       1  UNL1        0.0432
     30 H          -5.0041   -1.9829   -1.0163 H       1  UNL1        0.0432
     31 H          -5.6523    0.4706    0.2279 H       1  UNL1        0.0637
     32 H          -5.6929    2.8708    0.6547 H       1  UNL1        0.0618
     33 H          -3.5813    4.1599    0.8475 H       1  UNL1        0.0619
     34 H          -1.4038    2.9923    0.5957 H       1  UNL1        0.0655
     35 H           0.8757    0.9882   -1.9640 H       1  UNL1        0.0624
     36 H           2.8800    2.4111   -1.7971 H       1  UNL1        0.0625
     37 H           2.4894   -1.6536    1.0387 H       1  UNL1        0.0631
     38 H           6.7435    0.2673    2.2209 H       1  UNL1        0.0657
     39 H           6.9414    2.3058    0.8201 H       1  UNL1        0.0657
     40 H           1.4411   -3.0317   -1.2382 H       1  UNL1        0.0625
     41 H          -0.5404   -4.4760   -1.4452 H       1  UNL1        0.0618
     42 H          -2.7669   -3.6311   -0.9366 H       1  UNL1        0.0637
@<TRIPOS>BOND
     1     1     2    1
     2     2     3    1
     3     3     4   ar
     4     4     5   ar
     5     5     6   ar
     6     6     7   ar
     7     7     8   ar
     8     8     9    1
     9     9    10    1
    10    10    11   ar
    11    11    12    1
    12    12    13   ar
    13    13    14   ar
    14    14    15   ar
    15    15    16   ar
    16    16    17   ar
    17    16    18    1
    18    18    19    2
    19    18    20    1
    20    20    21    2
    21    21    22    1
    22    22    23    2
    23    11    24   ar
    24    24    25   ar
    25    25    26   ar
    26    26    27   ar
    27    27     2    1
    28     8     3   ar
    29    27    10   ar
    30    17    12   ar
    31    22    15    1
    32     1    28    1
    33     1    29    1
    34     1    30    1
    35     4    31    1
    36     5    32    1
    37     6    33    1
    38     7    34    1
    39    13    35    1
    40    14    36    1
    41    17    37    1
    42    20    38    1
    43    21    39    1
    44    24    40    1
    45    25    41    1
    46    26    42    1
