@<TRIPOS>MOLECULE
*****
 40 44 0 0 0
SMALL
GASTEIGER

@<TRIPOS>ATOM
      1 C           4.4765   -1.1207    0.1415 C.3     1  UNL1        0.0060
      2 N           3.1337   -0.5539    0.0713 N.pl3   1  UNL1       -0.2975
      3 C           2.9636    0.8416    0.0342 C.ar    1  UNL1        0.0766
      4 C           4.0007    1.7760    0.1710 C.ar    1  UNL1       -0.0368
      5 C           3.7507    3.1536    0.1152 C.ar    1  UNL1       -0.0598
      6 C           2.4556    3.6262   -0.0740 C.ar    1  UNL1       -0.0582
      7 C           1.4076    2.7208   -0.1989 C.ar    1  UNL1       -0.0175
      8 C           1.6626    1.3472   -0.1369 C.ar    1  UNL1        0.1498
      9 O           0.5604    0.5301   -0.2588 O.3     1  UNL1       -0.4517
     10 C           0.7233   -0.8246   -0.0194 C.ar    1  UNL1        0.1574
     11 C          -0.4579   -1.6000    0.0292 C.ar    1  UNL1        0.0263
     12 C          -1.7964   -1.0088   -0.1496 C.ar    1  UNL1       -0.0136
     13 C          -2.6128   -1.4024   -1.2456 C.ar    1  UNL1       -0.0532
     14 C          -3.8893   -0.8625   -1.4469 C.ar    1  UNL1       -0.0483
     15 C          -4.3250    0.0726   -0.5325 C.ar    1  UNL1        0.0492
     16 C          -3.5451    0.4666    0.5406 C.ar    1  UNL1        0.0498
     17 C          -2.2846   -0.0529    0.7613 C.ar    1  UNL1       -0.0410
     18 C          -4.3081    1.4599    1.2954 C.2     1  UNL1        0.2513
     19 O          -3.9355    2.0222    2.3047 O.2     1  UNL1       -0.2698
     20 N          -5.4930    1.6107    0.6422 N.am    1  UNL1       -0.2483
     21 C          -5.5825    0.8153   -0.4585 C.2     1  UNL1        0.2512
     22 O          -6.5071    0.7173   -1.2391 O.2     1  UNL1       -0.2698
     23 C          -0.3342   -2.9771    0.2638 C.ar    1  UNL1       -0.0504
     24 C           0.9178   -3.5574    0.4512 C.ar    1  UNL1       -0.0592
     25 C           2.0729   -2.7733    0.3972 C.ar    1  UNL1       -0.0367
     26 C           2.0063   -1.3952    0.1485 C.ar    1  UNL1        0.0773
     27 H           4.7980   -1.2187    1.1839 H       1  UNL1        0.0432
     28 H           4.5385   -2.1021   -0.3411 H       1  UNL1        0.0432
     29 H           5.2133   -0.5169   -0.3990 H       1  UNL1        0.0432
     30 H           5.0258    1.4638    0.3394 H       1  UNL1        0.0637
     31 H           4.5730    3.8565    0.2244 H       1  UNL1        0.0618
     32 H           2.2624    4.6946   -0.1166 H       1  UNL1        0.0619
     33 H           0.3911    3.0778   -0.3378 H       1  UNL1        0.0655
     34 H          -2.2351   -2.1346   -1.9595 H       1  UNL1        0.0624
     35 H          -4.5076   -1.1608   -2.2870 H       1  UNL1        0.0625
     36 H          -1.6938    0.2761    1.6119 H       1  UNL1        0.0631
     37 H          -6.2226    2.2361    0.9433 H       1  UNL1        0.1581
     38 H          -1.2206   -3.6061    0.3190 H       1  UNL1        0.0625
     39 H           0.9968   -4.6242    0.6469 H       1  UNL1        0.0618
     40 H           3.0205   -3.2726    0.5700 H       1  UNL1        0.0637
@<TRIPOS>BOND
     1     1     2    1
     2     2     3    1
     3     3     4   ar
     4     4     5   ar
     5     5     6   ar
     6     6     7   ar
     7     7     8   ar
     8     8     9    1
     9     9    10    1
    10    10    11   ar
    11    11    12    1
    12    12    13   ar
    13    13    14   ar
    14    14    15   ar
    15    15    16   ar
    16    16    17   ar
    17    16    18    1
    18    18    19    2
    19    18    20   am
    20    20    21   am
    21    21    22    2
    22    11    23   ar
    23    23    24   ar
    24    24    25   ar
    25    25    26   ar
    26    26     2    1
    27     8     3   ar
    28    26    10   ar
    29    17    12   ar
    30    21    15    1
    31     1    27    1
    32     1    28    1
    33     1    29    1
    34     4    30    1
    35     5    31    1
    36     6    32    1
    37     7    33    1
    38    13    34    1
    39    14    35    1
    40    17    36    1
    41    20    37    1
    42    23    38    1
    43    24    39    1
    44    25    40    1
