@<TRIPOS>MOLECULE
*****
 43 50 0 0 0
SMALL
GASTEIGER

@<TRIPOS>ATOM
      1 SI          5.2098    1.4778   -0.6019 Si      1  UNL1        0.0000
      2 C           6.3978    0.1539   -0.0380 C.2     1  UNL1        0.0000
      3 C           5.7689   -0.9424    0.4149 C.2     1  UNL1        0.0000
      4 C           4.3143   -0.8236    0.3526 C.ar    1  UNL1        0.0000
      5 C           3.7162    0.3757   -0.1542 C.ar    1  UNL1        0.0000
      6 C           2.2652    0.6007   -0.2608 C.ar    1  UNL1        0.0000
      7 C           1.5526    1.7512   -0.7483 C.ar    1  UNL1        0.0000
      8 C           2.1405    2.9064   -1.2267 C.ar    1  UNL1        0.0000
      9 S           1.0165    4.1116   -1.7406 S.2     1  UNL1        0.0000
     10 C          -0.3158    3.1189   -1.3365 C.ar    1  UNL1        0.0000
     11 C           0.1442    1.9324   -0.8362 C.ar    1  UNL1        0.0000
     12 C          -0.7160    0.8765   -0.4017 C.ar    1  UNL1        0.0000
     13 C          -2.1277    0.9235   -0.4334 C.ar    1  UNL1        0.0000
     14 C          -2.6872   -0.2434    0.0502 C.ar    1  UNL1        0.0000
     15 S          -1.4302   -1.3285    0.5148 S.2     1  UNL1        0.0000
     16 C          -0.1246   -0.2746    0.0849 C.ar    1  UNL1        0.0000
     17 C           1.3020   -0.4333    0.1634 C.ar    1  UNL1        0.0000
     18 C           1.9570   -1.5984    0.6562 C.ar    1  UNL1        0.0000
     19 C           1.4198   -2.7712    1.1420 C.ar    1  UNL1        0.0000
     20 N           2.4502   -3.6136    1.5031 N.ar    1  UNL1        0.0000
     21 C           3.6563   -3.0093    1.2608 C.ar    1  UNL1        0.0000
     22 C           3.3817   -1.7691    0.7399 C.ar    1  UNL1        0.0000
     23 C          -4.0909   -0.5981    0.1868 C.ar    1  UNL1        0.0000
     24 S          -4.6174   -2.1352    0.8250 S.2     1  UNL1        0.0000
     25 C          -6.2827   -1.7745    0.6603 C.ar    1  UNL1        0.0000
     26 C          -6.3845   -0.5344    0.1411 C.ar    1  UNL1        0.0000
     27 C          -7.5082    0.2537   -0.1978 C.ar    1  UNL1        0.0000
     28 C          -7.1483    1.4996   -0.7156 C.ar    1  UNL1        0.0000
     29 S          -5.4295    1.8208   -0.8356 S.2     1  UNL1        0.0000
     30 C          -5.2003    0.1559   -0.1377 C.ar    1  UNL1        0.0000
     31 H           5.3002    1.7347   -2.0610 H       1  UNL1        0.0000
     32 H           5.2801    2.6974    0.2412 H       1  UNL1        0.0000
     33 H           7.4656    0.3001   -0.0898 H       1  UNL1        0.0000
     34 H           6.2658   -1.8261    0.7887 H       1  UNL1        0.0000
     35 H           3.1729    3.1808   -1.3329 H       1  UNL1        0.0000
     36 H          -1.3244    3.4731   -1.4933 H       1  UNL1        0.0000
     37 H          -2.7003    1.7644   -0.7901 H       1  UNL1        0.0000
     38 H           0.4109   -3.1248    1.2810 H       1  UNL1        0.0000
     39 H           2.3293   -4.5408    1.8897 H       1  UNL1        0.0000
     40 H           4.5831   -3.5200    1.4824 H       1  UNL1        0.0000
     41 H          -7.0511   -2.4781    0.9481 H       1  UNL1        0.0000
     42 H          -8.5416   -0.0493   -0.0797 H       1  UNL1        0.0000
     43 H          -7.8202    2.2798   -1.0474 H       1  UNL1        0.0000
@<TRIPOS>BOND
     1     1     2    1
     2     2     3    2
     3     3     4    1
     4     4     5   ar
     5     5     6   ar
     6     6     7   ar
     7     7     8   ar
     8     8     9   ar
     9     9    10   ar
    10    10    11   ar
    11    11    12   ar
    12    12    13   ar
    13    13    14   ar
    14    14    15   ar
    15    15    16   ar
    16    16    17   ar
    17    17    18   ar
    18    18    19   ar
    19    19    20   ar
    20    20    21   ar
    21    21    22   ar
    22    14    23    1
    23    23    24   ar
    24    24    25   ar
    25    25    26   ar
    26    26    27   ar
    27    27    28   ar
    28    28    29   ar
    29    29    30   ar
    30     5     1    1
    31    17     6   ar
    32    22    18   ar
    33    30    23   ar
    34    22     4   ar
    35    30    26   ar
    36    11     7   ar
    37    16    12   ar
    38     1    31    1
    39     1    32    1
    40     2    33    1
    41     3    34    1
    42     8    35    1
    43    10    36    1
    44    13    37    1
    45    19    38    1
    46    20    39    1
    47    21    40    1
    48    25    41    1
    49    27    42    1
    50    28    43    1
