@<TRIPOS>MOLECULE
*****
 45 50 0 0 0
SMALL
GASTEIGER

@<TRIPOS>ATOM
      1 C          -5.4362   -1.3551    0.5131 C.3     1  UNL1        0.0060
      2 N          -4.1085   -0.8144    0.2414 N.pl3   1  UNL1       -0.2975
      3 C          -3.9722    0.4938   -0.2558 C.ar    1  UNL1        0.0766
      4 C          -5.0416    1.3215   -0.6287 C.ar    1  UNL1       -0.0368
      5 C          -4.8239    2.6204   -1.1077 C.ar    1  UNL1       -0.0598
      6 C          -3.5299    3.1175   -1.2290 C.ar    1  UNL1       -0.0582
      7 C          -2.4516    2.3119   -0.8800 C.ar    1  UNL1       -0.0175
      8 C          -2.6749    1.0146   -0.4076 C.ar    1  UNL1        0.1498
      9 O          -1.5443    0.2908   -0.1007 O.3     1  UNL1       -0.4517
     10 C          -1.6919   -1.0474    0.2241 C.ar    1  UNL1        0.1574
     11 C          -0.4996   -1.7924    0.3717 C.ar    1  UNL1        0.0263
     12 C           0.8345   -1.1840    0.2204 C.ar    1  UNL1       -0.0132
     13 C           1.6946   -1.5942   -0.8002 C.ar    1  UNL1       -0.0533
     14 C           2.9659   -1.0261   -0.9493 C.ar    1  UNL1       -0.0524
     15 C           3.4169   -0.0155   -0.0633 C.ar    1  UNL1       -0.0031
     16 C           2.5512    0.3859    0.9528 C.ar    1  UNL1        0.0211
     17 C           1.2702   -0.1848    1.1062 C.ar    1  UNL1       -0.0396
     18 S           3.2507    1.6111    1.9281 S.2     1  UNL1       -0.0882
     19 C           4.7080    1.6321    1.0242 C.ar    1  UNL1        0.0205
     20 C           5.8327    2.4498    1.2558 C.ar    1  UNL1       -0.0474
     21 C           6.9412    2.3344    0.4152 C.ar    1  UNL1       -0.0607
     22 C           6.9360    1.4276   -0.6336 C.ar    1  UNL1       -0.0611
     23 C           5.8178    0.6189   -0.8587 C.ar    1  UNL1       -0.0529
     24 C           4.6735    0.7104   -0.0228 C.ar    1  UNL1       -0.0031
     25 C          -0.6078   -3.1583    0.6711 C.ar    1  UNL1       -0.0504
     26 C          -1.8556   -3.7591    0.8159 C.ar    1  UNL1       -0.0592
     27 C          -3.0217   -3.0028    0.6737 C.ar    1  UNL1       -0.0367
     28 C          -2.9697   -1.6310    0.3883 C.ar    1  UNL1        0.0773
     29 H          -6.1379   -0.5872    0.8559 H       1  UNL1        0.0432
     30 H          -5.4284   -2.0849    1.3299 H       1  UNL1        0.0432
     31 H          -5.8469   -1.8323   -0.3830 H       1  UNL1        0.0432
     32 H          -6.0692    0.9788   -0.5720 H       1  UNL1        0.0637
     33 H          -5.6711    3.2412   -1.3888 H       1  UNL1        0.0618
     34 H          -3.3613    4.1247   -1.5997 H       1  UNL1        0.0619
     35 H          -1.4355    2.6839   -0.9777 H       1  UNL1        0.0655
     36 H           1.3769   -2.3599   -1.5058 H       1  UNL1        0.0624
     37 H           3.6074   -1.3656   -1.7585 H       1  UNL1        0.0624
     38 H           0.6202    0.1539    1.9103 H       1  UNL1        0.0635
     39 H           5.8382    3.1611    2.0771 H       1  UNL1        0.0629
     40 H           7.8130    2.9614    0.5865 H       1  UNL1        0.0618
     41 H           7.8027    1.3433   -1.2846 H       1  UNL1        0.0618
     42 H           5.8295   -0.0866   -1.6856 H       1  UNL1        0.0624
     43 H           0.2886   -3.7625    0.7975 H       1  UNL1        0.0625
     44 H          -1.9226   -4.8207    1.0409 H       1  UNL1        0.0618
     45 H          -3.9674   -3.5240    0.7788 H       1  UNL1        0.0637
@<TRIPOS>BOND
     1     1     2    1
     2     2     3    1
     3     3     4   ar
     4     4     5   ar
     5     5     6   ar
     6     6     7   ar
     7     7     8   ar
     8     8     9    1
     9     9    10    1
    10    10    11   ar
    11    11    12    1
    12    12    13   ar
    13    13    14   ar
    14    14    15   ar
    15    15    16   ar
    16    16    17   ar
    17    16    18   ar
    18    18    19   ar
    19    19    20   ar
    20    20    21   ar
    21    21    22   ar
    22    22    23   ar
    23    23    24   ar
    24    11    25   ar
    25    25    26   ar
    26    26    27   ar
    27    27    28   ar
    28    28     2    1
    29     8     3   ar
    30    28    10   ar
    31    17    12   ar
    32    24    19   ar
    33    24    15   ar
    34     1    29    1
    35     1    30    1
    36     1    31    1
    37     4    32    1
    38     5    33    1
    39     6    34    1
    40     7    35    1
    41    13    36    1
    42    14    37    1
    43    17    38    1
    44    20    39    1
    45    21    40    1
    46    22    41    1
    47    23    42    1
    48    25    43    1
    49    26    44    1
    50    27    45    1
