@<TRIPOS>MOLECULE
*****
 40 44 0 0 0
SMALL
GASTEIGER

@<TRIPOS>ATOM
      1 C          -4.3099   -1.8592   -0.1298 C.3     1  UNL1        0.0060
      2 N          -3.1072   -1.0338   -0.0890 N.pl3   1  UNL1       -0.2975
      3 C          -3.2054    0.3573   -0.2688 C.ar    1  UNL1        0.0766
      4 C          -4.3876    1.0389   -0.5937 C.ar    1  UNL1       -0.0368
      5 C          -4.4058    2.4315   -0.7482 C.ar    1  UNL1       -0.0598
      6 C          -3.2392    3.1723   -0.5860 C.ar    1  UNL1       -0.0582
      7 C          -2.0509    2.5192   -0.2777 C.ar    1  UNL1       -0.0175
      8 C          -2.0380    1.1286   -0.1295 C.ar    1  UNL1        0.1498
      9 O          -0.8125    0.5730    0.1639 O.3     1  UNL1       -0.4517
     10 C          -0.7032   -0.8079    0.1659 C.ar    1  UNL1        0.1574
     11 C           0.6019   -1.3341    0.3051 C.ar    1  UNL1        0.0263
     12 C           1.7867   -0.4742    0.4745 C.ar    1  UNL1       -0.0122
     13 C           1.9117    0.3776    1.5769 C.ar    1  UNL1       -0.0518
     14 C           3.0439    1.1822    1.7282 C.ar    1  UNL1       -0.0337
     15 C           4.0730    1.1598    0.7988 C.ar    1  UNL1        0.0892
     16 N           5.1509    1.9494    0.9797 N.ar    1  UNL1       -0.2519
     17 C           6.1129    1.8755    0.0354 C.ar    1  UNL1        0.0464
     18 C           6.0095    1.0397   -1.0569 C.ar    1  UNL1        0.0464
     19 N           4.9394    0.2403   -1.2541 N.ar    1  UNL1       -0.2519
     20 C           3.9653    0.3013   -0.3232 C.ar    1  UNL1        0.0897
     21 C           2.8325   -0.4930   -0.4623 C.ar    1  UNL1       -0.0264
     22 C           0.7564   -2.7281    0.2770 C.ar    1  UNL1       -0.0504
     23 C          -0.3454   -3.5645    0.1170 C.ar    1  UNL1       -0.0592
     24 C          -1.6274   -3.0237   -0.0087 C.ar    1  UNL1       -0.0367
     25 C          -1.8396   -1.6383    0.0250 C.ar    1  UNL1        0.0773
     26 H          -4.2223   -2.7521    0.4985 H       1  UNL1        0.0432
     27 H          -4.5275   -2.1701   -1.1572 H       1  UNL1        0.0432
     28 H          -5.1859   -1.3407    0.2743 H       1  UNL1        0.0432
     29 H          -5.3215    0.5098   -0.7502 H       1  UNL1        0.0637
     30 H          -5.3362    2.9346   -1.0001 H       1  UNL1        0.0618
     31 H          -3.2536    4.2520   -0.7064 H       1  UNL1        0.0619
     32 H          -1.1310    3.0846   -0.1578 H       1  UNL1        0.0655
     33 H           1.1246    0.4225    2.3278 H       1  UNL1        0.0624
     34 H           3.1237    1.8405    2.5896 H       1  UNL1        0.0640
     35 H           6.9765    2.5131    0.1841 H       1  UNL1        0.0845
     36 H           6.7877    0.9880   -1.8094 H       1  UNL1        0.0845
     37 H           2.7639   -1.1376   -1.3365 H       1  UNL1        0.0645
     38 H           1.7445   -3.1721    0.3837 H       1  UNL1        0.0625
     39 H          -0.2072   -4.6426    0.0892 H       1  UNL1        0.0618
     40 H          -2.4479   -3.7195   -0.1492 H       1  UNL1        0.0637
@<TRIPOS>BOND
     1     1     2    1
     2     2     3    1
     3     3     4   ar
     4     4     5   ar
     5     5     6   ar
     6     6     7   ar
     7     7     8   ar
     8     8     9    1
     9     9    10    1
    10    10    11   ar
    11    11    12    1
    12    12    13   ar
    13    13    14   ar
    14    14    15   ar
    15    15    16   ar
    16    16    17   ar
    17    17    18   ar
    18    18    19   ar
    19    19    20   ar
    20    20    21   ar
    21    11    22   ar
    22    22    23   ar
    23    23    24   ar
    24    24    25   ar
    25    25     2    1
    26     8     3   ar
    27    25    10   ar
    28    21    12   ar
    29    20    15   ar
    30     1    26    1
    31     1    27    1
    32     1    28    1
    33     4    29    1
    34     5    30    1
    35     6    31    1
    36     7    32    1
    37    13    33    1
    38    14    34    1
    39    17    35    1
    40    18    36    1
    41    21    37    1
    42    22    38    1
    43    23    39    1
    44    24    40    1
