@<TRIPOS>MOLECULE
*****
 37 40 0 0 0
SMALL
GASTEIGER

@<TRIPOS>ATOM
      1 C           1.4196   -2.7393   -2.5410 C.3     1  UNL1        0.0060
      2 N           0.8504   -1.5995   -1.8298 N.pl3   1  UNL1       -0.2975
      3 C           0.6263   -0.3886   -2.5082 C.ar    1  UNL1        0.0766
      4 C           0.7792   -0.2096   -3.8909 C.ar    1  UNL1       -0.0368
      5 C           0.5449    1.0335   -4.4936 C.ar    1  UNL1       -0.0598
      6 C           0.1470    2.1236   -3.7256 C.ar    1  UNL1       -0.0582
      7 C          -0.0267    1.9688   -2.3545 C.ar    1  UNL1       -0.0175
      8 C           0.2031    0.7244   -1.7593 C.ar    1  UNL1        0.1498
      9 O          -0.0080    0.6663   -0.3989 O.3     1  UNL1       -0.4517
     10 C           0.0472   -0.5736    0.2151 C.ar    1  UNL1        0.1574
     11 C          -0.3360   -0.6152    1.5733 C.ar    1  UNL1        0.0275
     12 C          -0.7666    0.5946    2.2946 C.ar    1  UNL1        0.0030
     13 C          -2.1049    1.0170    2.1869 C.ar    1  UNL1       -0.0527
     14 C          -2.5563    2.1595    2.8505 C.ar    1  UNL1       -0.0611
     15 C          -1.6782    2.9019    3.6342 C.ar    1  UNL1       -0.0605
     16 C          -0.3472    2.5024    3.7537 C.ar    1  UNL1       -0.0438
     17 C           0.1145    1.3549    3.0892 C.ar    1  UNL1        0.0596
     18 C           1.4937    0.9840    3.2468 C.1     1  UNL1        0.0998
     19 N           2.6083    0.7023    3.4097 N.1     1  UNL1       -0.1909
     20 C          -0.3107   -1.8489    2.2368 C.ar    1  UNL1       -0.0504
     21 C           0.0840   -3.0030    1.5655 C.ar    1  UNL1       -0.0592
     22 C           0.4667   -2.9418    0.2222 C.ar    1  UNL1       -0.0367
     23 C           0.4700   -1.7283   -0.4801 C.ar    1  UNL1        0.0773
     24 H           2.0262   -3.3759   -1.8878 H       1  UNL1        0.0432
     25 H           0.6258   -3.3471   -2.9879 H       1  UNL1        0.0432
     26 H           2.1155   -2.4344   -3.3299 H       1  UNL1        0.0432
     27 H           1.0697   -1.0299   -4.5385 H       1  UNL1        0.0637
     28 H           0.6729    1.1452   -5.5675 H       1  UNL1        0.0618
     29 H          -0.0323    3.0876   -4.1935 H       1  UNL1        0.0619
     30 H          -0.3438    2.8100   -1.7449 H       1  UNL1        0.0655
     31 H          -2.8036    0.4516    1.5716 H       1  UNL1        0.0624
     32 H          -3.5938    2.4696    2.7507 H       1  UNL1        0.0618
     33 H          -2.0284    3.7930    4.1498 H       1  UNL1        0.0618
     34 H           0.3317    3.0922    4.3676 H       1  UNL1        0.0631
     35 H          -0.6035   -1.9171    3.2827 H       1  UNL1        0.0625
     36 H           0.0947   -3.9567    2.0879 H       1  UNL1        0.0618
     37 H           0.7486   -3.8735   -0.2571 H       1  UNL1        0.0637
@<TRIPOS>BOND
     1     1     2    1
     2     2     3    1
     3     3     4   ar
     4     4     5   ar
     5     5     6   ar
     6     6     7   ar
     7     7     8   ar
     8     8     9    1
     9     9    10    1
    10    10    11   ar
    11    11    12    1
    12    12    13   ar
    13    13    14   ar
    14    14    15   ar
    15    15    16   ar
    16    16    17   ar
    17    17    18    1
    18    18    19    3
    19    11    20   ar
    20    20    21   ar
    21    21    22   ar
    22    22    23   ar
    23    23     2    1
    24     8     3   ar
    25    23    10   ar
    26    17    12   ar
    27     1    24    1
    28     1    25    1
    29     1    26    1
    30     4    27    1
    31     5    28    1
    32     6    29    1
    33     7    30    1
    34    13    31    1
    35    14    32    1
    36    15    33    1
    37    16    34    1
    38    20    35    1
    39    21    36    1
    40    22    37    1
