@<TRIPOS>MOLECULE
*****
 40 44 0 0 0
SMALL
GASTEIGER

@<TRIPOS>ATOM
      1 C          -4.3508    1.3622    1.4199 C.3     1  UNL1        0.0060
      2 N          -3.1533    0.8179    0.7878 N.pl3   1  UNL1       -0.2975
      3 C          -3.2758   -0.0888   -0.2800 C.ar    1  UNL1        0.0766
      4 C          -4.4900   -0.6137   -0.7467 C.ar    1  UNL1       -0.0368
      5 C          -4.5298   -1.5076   -1.8251 C.ar    1  UNL1       -0.0598
      6 C          -3.3538   -1.8999   -2.4570 C.ar    1  UNL1       -0.0582
      7 C          -2.1356   -1.4054   -2.0044 C.ar    1  UNL1       -0.0175
      8 C          -2.1020   -0.5176   -0.9243 C.ar    1  UNL1        0.1498
      9 O          -0.8490   -0.0932   -0.5419 O.3     1  UNL1       -0.4517
     10 C          -0.7365    0.6616    0.6140 C.ar    1  UNL1        0.1574
     11 C           0.5781    0.9355    1.0586 C.ar    1  UNL1        0.0278
     12 C           1.7716    0.4816    0.3248 C.ar    1  UNL1        0.0058
     13 C           1.9942    0.8193   -1.0069 C.ar    1  UNL1        0.0362
     14 N           3.0788    0.4424   -1.7249 N.ar    1  UNL1       -0.2528
     15 C           3.9981   -0.3157   -1.0972 C.ar    1  UNL1        0.0892
     16 C           5.1282   -0.7344   -1.7815 C.ar    1  UNL1       -0.0328
     17 C           6.0951   -1.5181   -1.1564 C.ar    1  UNL1       -0.0415
     18 C           5.8928   -1.8633    0.1651 C.ar    1  UNL1        0.0284
     19 N           4.8122   -1.4818    0.8772 N.ar    1  UNL1       -0.2534
     20 C           3.8877   -0.7243    0.2486 C.ar    1  UNL1        0.0897
     21 C           2.7571   -0.3064    0.9351 C.ar    1  UNL1       -0.0250
     22 C           0.7297    1.6673    2.2463 C.ar    1  UNL1       -0.0503
     23 C          -0.3817    2.1081    2.9605 C.ar    1  UNL1       -0.0592
     24 C          -1.6705    1.8346    2.4969 C.ar    1  UNL1       -0.0367
     25 C          -1.8800    1.1185    1.3104 C.ar    1  UNL1        0.0773
     26 H          -4.6903    0.7058    2.2282 H       1  UNL1        0.0432
     27 H          -4.1864    2.3663    1.8257 H       1  UNL1        0.0432
     28 H          -5.1725    1.4996    0.7090 H       1  UNL1        0.0432
     29 H          -5.4349   -0.3567   -0.2800 H       1  UNL1        0.0637
     30 H          -5.4848   -1.8989   -2.1672 H       1  UNL1        0.0618
     31 H          -3.3850   -2.5928   -3.2933 H       1  UNL1        0.0619
     32 H          -1.2093   -1.7108   -2.4833 H       1  UNL1        0.0655
     33 H           1.2821    1.4316   -1.5564 H       1  UNL1        0.0836
     34 H           5.2543   -0.4434   -2.8208 H       1  UNL1        0.0640
     35 H           6.9791   -1.8471   -1.6904 H       1  UNL1        0.0633
     36 H           6.6128   -2.4729    0.7038 H       1  UNL1        0.0830
     37 H           2.6423   -0.6164    1.9714 H       1  UNL1        0.0646
     38 H           1.7233    1.9040    2.6233 H       1  UNL1        0.0625
     39 H          -0.2454    2.6672    3.8832 H       1  UNL1        0.0618
     40 H          -2.5004    2.1855    3.1014 H       1  UNL1        0.0637
@<TRIPOS>BOND
     1     1     2    1
     2     2     3    1
     3     3     4   ar
     4     4     5   ar
     5     5     6   ar
     6     6     7   ar
     7     7     8   ar
     8     8     9    1
     9     9    10    1
    10    10    11   ar
    11    11    12    1
    12    12    13   ar
    13    13    14   ar
    14    14    15   ar
    15    15    16   ar
    16    16    17   ar
    17    17    18   ar
    18    18    19   ar
    19    19    20   ar
    20    20    21   ar
    21    11    22   ar
    22    22    23   ar
    23    23    24   ar
    24    24    25   ar
    25    25     2    1
    26     8     3   ar
    27    25    10   ar
    28    21    12   ar
    29    20    15   ar
    30     1    26    1
    31     1    27    1
    32     1    28    1
    33     4    29    1
    34     5    30    1
    35     6    31    1
    36     7    32    1
    37    13    33    1
    38    16    34    1
    39    17    35    1
    40    18    36    1
    41    21    37    1
    42    22    38    1
    43    23    39    1
    44    24    40    1
