@<TRIPOS>MOLECULE
*****
 40 44 0 0 0
SMALL
GASTEIGER

@<TRIPOS>ATOM
      1 C           4.1360   -1.8475    1.1322 C.3     1  UNL1        0.0060
      2 N           2.9615   -1.0934    0.7061 N.pl3   1  UNL1       -0.2975
      3 C           3.0708    0.2841    0.4445 C.ar    1  UNL1        0.0766
      4 C           4.2718    1.0083    0.4674 C.ar    1  UNL1       -0.0368
      5 C           4.2972    2.3840    0.2016 C.ar    1  UNL1       -0.0598
      6 C           3.1210    3.0641   -0.0985 C.ar    1  UNL1       -0.0582
      7 C           1.9187    2.3668   -0.1409 C.ar    1  UNL1       -0.0175
      8 C           1.9003    0.9932    0.1211 C.ar    1  UNL1        0.1498
      9 O           0.6650    0.3892    0.0442 O.3     1  UNL1       -0.4517
     10 C           0.6053   -0.9920    0.1310 C.ar    1  UNL1        0.1574
     11 C          -0.6542   -1.5819   -0.1236 C.ar    1  UNL1        0.0277
     12 C          -1.8491   -0.7820   -0.4294 C.ar    1  UNL1        0.0045
     13 C          -2.5361   -0.9120   -1.6300 C.ar    1  UNL1        0.0378
     14 N          -3.6507   -0.2182   -1.9681 N.ar    1  UNL1       -0.2351
     15 C          -4.1409    0.6711   -1.1041 C.ar    1  UNL1        0.1597
     16 N          -5.2368    1.3509   -1.4487 N.ar    1  UNL1       -0.2357
     17 C          -5.7443    2.2566   -0.5842 C.ar    1  UNL1        0.0300
     18 C          -5.1997    2.5316    0.6533 C.ar    1  UNL1       -0.0429
     19 C          -4.0630    1.8304    1.0230 C.ar    1  UNL1       -0.0496
     20 C          -3.5185    0.8856    0.1413 C.ar    1  UNL1        0.0198
     21 C          -2.3700    0.1480    0.4699 C.ar    1  UNL1       -0.0418
     22 C          -0.7476   -2.9808   -0.0786 C.ar    1  UNL1       -0.0503
     23 C           0.3703   -3.7602    0.2085 C.ar    1  UNL1       -0.0592
     24 C           1.6031   -3.1559    0.4666 C.ar    1  UNL1       -0.0367
     25 C           1.7487   -1.7619    0.4471 C.ar    1  UNL1        0.0773
     26 H           4.6921   -2.2155    0.2634 H       1  UNL1        0.0432
     27 H           4.8107   -1.2514    1.7559 H       1  UNL1        0.0432
     28 H           3.8742   -2.6983    1.7705 H       1  UNL1        0.0432
     29 H           5.2206    0.5257    0.6762 H       1  UNL1        0.0637
     30 H           5.2424    2.9210    0.2253 H       1  UNL1        0.0618
     31 H           3.1417    4.1303   -0.3064 H       1  UNL1        0.0619
     32 H           0.9950    2.8841   -0.3846 H       1  UNL1        0.0655
     33 H          -2.1964   -1.6047   -2.3970 H       1  UNL1        0.0836
     34 H          -6.6352    2.7722   -0.9322 H       1  UNL1        0.0830
     35 H          -5.6475    3.2695    1.3089 H       1  UNL1        0.0633
     36 H          -3.6045    2.0193    1.9900 H       1  UNL1        0.0625
     37 H          -1.8798    0.3005    1.4294 H       1  UNL1        0.0631
     38 H          -1.6999   -3.4754   -0.2630 H       1  UNL1        0.0625
     39 H           0.2833   -4.8440    0.2322 H       1  UNL1        0.0618
     40 H           2.4446   -3.8110    0.6671 H       1  UNL1        0.0637
@<TRIPOS>BOND
     1     1     2    1
     2     2     3    1
     3     3     4   ar
     4     4     5   ar
     5     5     6   ar
     6     6     7   ar
     7     7     8   ar
     8     8     9    1
     9     9    10    1
    10    10    11   ar
    11    11    12    1
    12    12    13   ar
    13    13    14   ar
    14    14    15   ar
    15    15    16   ar
    16    16    17   ar
    17    17    18   ar
    18    18    19   ar
    19    19    20   ar
    20    20    21   ar
    21    11    22   ar
    22    22    23   ar
    23    23    24   ar
    24    24    25   ar
    25    25     2    1
    26     8     3   ar
    27    25    10   ar
    28    21    12   ar
    29    20    15   ar
    30     1    26    1
    31     1    27    1
    32     1    28    1
    33     4    29    1
    34     5    30    1
    35     6    31    1
    36     7    32    1
    37    13    33    1
    38    17    34    1
    39    18    35    1
    40    19    36    1
    41    21    37    1
    42    22    38    1
    43    23    39    1
    44    24    40    1
