@<TRIPOS>MOLECULE
*****
 38 42 0 0 0
SMALL
GASTEIGER

@<TRIPOS>ATOM
      1 C          -3.9825    1.8998    0.9362 C.3     1  UNL1        0.0060
      2 N          -2.8701    1.0306    0.5647 N.pl3   1  UNL1       -0.2975
      3 C          -3.0860   -0.3470    0.3901 C.ar    1  UNL1        0.0766
      4 C          -4.3439   -0.9667    0.4046 C.ar    1  UNL1       -0.0368
      5 C          -4.4744   -2.3512    0.2334 C.ar    1  UNL1       -0.0598
      6 C          -3.3481   -3.1449    0.0395 C.ar    1  UNL1       -0.0582
      7 C          -2.0903   -2.5527    0.0056 C.ar    1  UNL1       -0.0175
      8 C          -1.9678   -1.1692    0.1696 C.ar    1  UNL1        0.1498
      9 O          -0.6851   -0.6718    0.1061 O.3     1  UNL1       -0.4516
     10 C          -0.5130    0.7027    0.0718 C.ar    1  UNL1        0.1589
     11 C           0.7977    1.1707   -0.1831 C.ar    1  UNL1        0.0460
     12 C           1.9392    0.2767   -0.4507 C.ar    1  UNL1        0.0951
     13 C           1.8741   -0.8363   -1.2778 C.ar    1  UNL1        0.0562
     14 N           2.9348   -1.6389   -1.5294 N.ar    1  UNL1       -0.2310
     15 C           4.0886   -1.3106   -0.9397 C.ar    1  UNL1        0.1977
     16 N           5.1567   -2.0884   -1.1659 N.ar    1  UNL1       -0.2316
     17 C           6.3094   -1.7322   -0.5647 C.ar    1  UNL1        0.0482
     18 C           6.3991   -0.6213    0.2439 C.ar    1  UNL1        0.0482
     19 N           5.3395    0.1770    0.4842 N.ar    1  UNL1       -0.2316
     20 C           4.1800   -0.1591   -0.0987 C.ar    1  UNL1        0.1983
     21 N           3.1157    0.6208    0.1292 N.ar    1  UNL1       -0.2230
     22 C           1.0016    2.5615   -0.1761 C.ar    1  UNL1       -0.0489
     23 C          -0.0524    3.4452    0.0417 C.ar    1  UNL1       -0.0591
     24 C          -1.3388    2.9581    0.2750 C.ar    1  UNL1       -0.0367
     25 C          -1.5975    1.5813    0.3137 C.ar    1  UNL1        0.0773
     26 H          -4.7237    1.3883    1.5596 H       1  UNL1        0.0432
     27 H          -3.6598    2.7449    1.5540 H       1  UNL1        0.0432
     28 H          -4.4823    2.2860    0.0416 H       1  UNL1        0.0432
     29 H          -5.2559   -0.3935    0.5338 H       1  UNL1        0.0637
     30 H          -5.4617   -2.8067    0.2504 H       1  UNL1        0.0618
     31 H          -3.4499   -4.2189   -0.0904 H       1  UNL1        0.0619
     32 H          -1.2049   -3.1625   -0.1511 H       1  UNL1        0.0655
     33 H           0.9590   -1.1192   -1.7886 H       1  UNL1        0.0852
     34 H           7.1643   -2.3713   -0.7551 H       1  UNL1        0.0846
     35 H           7.3287   -0.3381    0.7249 H       1  UNL1        0.0846
     36 H           1.9986    2.9658   -0.3505 H       1  UNL1        0.0625
     37 H           0.1292    4.5172    0.0290 H       1  UNL1        0.0618
     38 H          -2.1280    3.6885    0.4192 H       1  UNL1        0.0637
@<TRIPOS>BOND
     1     1     2    1
     2     2     3    1
     3     3     4   ar
     4     4     5   ar
     5     5     6   ar
     6     6     7   ar
     7     7     8   ar
     8     8     9    1
     9     9    10    1
    10    10    11   ar
    11    11    12    1
    12    12    13   ar
    13    13    14   ar
    14    14    15   ar
    15    15    16   ar
    16    16    17   ar
    17    17    18   ar
    18    18    19   ar
    19    19    20   ar
    20    20    21   ar
    21    11    22   ar
    22    22    23   ar
    23    23    24   ar
    24    24    25   ar
    25    25     2    1
    26     8     3   ar
    27    25    10   ar
    28    21    12   ar
    29    20    15   ar
    30     1    26    1
    31     1    27    1
    32     1    28    1
    33     4    29    1
    34     5    30    1
    35     6    31    1
    36     7    32    1
    37    13    33    1
    38    17    34    1
    39    18    35    1
    40    22    36    1
    41    23    37    1
    42    24    38    1
