@<TRIPOS>MOLECULE
*****
 32 35 0 0 0
SMALL
GASTEIGER

@<TRIPOS>ATOM
      1 C          -1.8859    2.7609   -0.2463 C.3     1  UNL1        0.0060
      2 N          -1.2302    1.4600   -0.1558 N.pl3   1  UNL1       -0.2975
      3 C          -2.0053    0.2876   -0.1143 C.ar    1  UNL1        0.0766
      4 C          -3.4058    0.2581   -0.0439 C.ar    1  UNL1       -0.0368
      5 C          -4.1072   -0.9546   -0.0135 C.ar    1  UNL1       -0.0598
      6 C          -3.4211   -2.1647   -0.0474 C.ar    1  UNL1       -0.0582
      7 C          -2.0317   -2.1629   -0.1031 C.ar    1  UNL1       -0.0175
      8 C          -1.3372   -0.9493   -0.1287 C.ar    1  UNL1        0.1498
      9 O           0.0356   -1.0492   -0.1733 O.3     1  UNL1       -0.4517
     10 C           0.7832    0.1076   -0.0367 C.ar    1  UNL1        0.1575
     11 C           2.1808   -0.0448    0.0876 C.ar    1  UNL1        0.0308
     12 C           2.8169   -1.3502    0.0287 C.ar    1  UNL1        0.0443
     13 C           2.5689   -2.4778   -0.7854 C.ar    1  UNL1        0.0778
     14 N           3.3948   -3.4926   -0.5152 N.ar    1  UNL1       -0.0862
     15 O           4.2067   -3.0355    0.5105 O.2     1  UNL1       -0.3623
     16 C           3.8559   -1.7639    0.8286 C.ar    1  UNL1        0.1320
     17 C           2.9702    1.0993    0.2608 C.ar    1  UNL1       -0.0502
     18 C           2.3815    2.3602    0.3133 C.ar    1  UNL1       -0.0592
     19 C           0.9974    2.4973    0.1818 C.ar    1  UNL1       -0.0367
     20 C           0.1689    1.3818   -0.0090 C.ar    1  UNL1        0.0773
     21 H          -2.1187    3.1439    0.7530 H       1  UNL1        0.0432
     22 H          -1.2721    3.4993   -0.7736 H       1  UNL1        0.0432
     23 H          -2.8099    2.7226   -0.8331 H       1  UNL1        0.0432
     24 H          -3.9901    1.1708    0.0042 H       1  UNL1        0.0637
     25 H          -5.1932   -0.9491    0.0409 H       1  UNL1        0.0618
     26 H          -3.9656   -3.1047   -0.0232 H       1  UNL1        0.0619
     27 H          -1.4849   -3.1016   -0.1200 H       1  UNL1        0.0655
     28 H           1.8294   -2.6021   -1.5642 H       1  UNL1        0.0870
     29 H           4.4255   -1.3149    1.6285 H       1  UNL1        0.1064
     30 H           4.0521    1.0250    0.3463 H       1  UNL1        0.0625
     31 H           3.0013    3.2426    0.4548 H       1  UNL1        0.0618
     32 H           0.5896    3.5009    0.2479 H       1  UNL1        0.0637
@<TRIPOS>BOND
     1     1     2    1
     2     2     3    1
     3     3     4   ar
     4     4     5   ar
     5     5     6   ar
     6     6     7   ar
     7     7     8   ar
     8     8     9    1
     9     9    10    1
    10    10    11   ar
    11    11    12    1
    12    12    13   ar
    13    13    14   ar
    14    14    15   ar
    15    15    16   ar
    16    11    17   ar
    17    17    18   ar
    18    18    19   ar
    19    19    20   ar
    20    20     2    1
    21     8     3   ar
    22    20    10   ar
    23    16    12   ar
    24     1    21    1
    25     1    22    1
    26     1    23    1
    27     4    24    1
    28     5    25    1
    29     6    26    1
    30     7    27    1
    31    13    28    1
    32    16    29    1
    33    17    30    1
    34    18    31    1
    35    19    32    1
