@<TRIPOS>MOLECULE
*****
 32 35 0 0 0
SMALL
GASTEIGER

@<TRIPOS>ATOM
      1 C          -2.3523   -2.4274    0.4279 C.3     1  UNL1        0.0060
      2 N          -1.4556   -1.3261    0.0913 N.pl3   1  UNL1       -0.2975
      3 C          -1.8006   -0.4307   -0.9356 C.ar    1  UNL1        0.0766
      4 C          -3.0193   -0.4421   -1.6299 C.ar    1  UNL1       -0.0368
      5 C          -3.2853    0.4825   -2.6486 C.ar    1  UNL1       -0.0598
      6 C          -2.3386    1.4430   -2.9908 C.ar    1  UNL1       -0.0582
      7 C          -1.1278    1.4843   -2.3083 C.ar    1  UNL1       -0.0175
      8 C          -0.8700    0.5613   -1.2896 C.ar    1  UNL1        0.1498
      9 O           0.3512    0.6880   -0.6661 O.3     1  UNL1       -0.4516
     10 C           0.6056   -0.0893    0.4501 C.ar    1  UNL1        0.1589
     11 C           1.7924    0.1756    1.1655 C.ar    1  UNL1        0.0450
     12 C           2.7727    1.1798    0.7583 C.ar    1  UNL1        0.0817
     13 C           3.1591    1.4129   -0.5491 C.ar    1  UNL1        0.0032
     14 S           4.3460    2.6506   -0.6053 S.2     1  UNL1       -0.0833
     15 C           4.2818    2.7578    1.1033 C.ar    1  UNL1        0.0654
     16 N           3.4479    1.9403    1.7061 N.ar    1  UNL1       -0.2473
     17 C           2.0461   -0.5470    2.3390 C.ar    1  UNL1       -0.0489
     18 C           1.1553   -1.5217    2.7781 C.ar    1  UNL1       -0.0591
     19 C          -0.0033   -1.7924    2.0471 C.ar    1  UNL1       -0.0367
     20 C          -0.3010   -1.0941    0.8666 C.ar    1  UNL1        0.0773
     21 H          -1.8122   -3.2987    0.8139 H       1  UNL1        0.0432
     22 H          -3.0890   -2.1090    1.1731 H       1  UNL1        0.0432
     23 H          -2.8827   -2.8163   -0.4479 H       1  UNL1        0.0432
     24 H          -3.8004   -1.1561   -1.3912 H       1  UNL1        0.0637
     25 H          -4.2386    0.4514   -3.1705 H       1  UNL1        0.0618
     26 H          -2.5459    2.1605   -3.7799 H       1  UNL1        0.0619
     27 H          -0.3848    2.2360   -2.5593 H       1  UNL1        0.0655
     28 H           2.8167    0.9334   -1.4549 H       1  UNL1        0.0715
     29 H           4.9001    3.4575    1.6499 H       1  UNL1        0.0907
     30 H           2.9451   -0.3464    2.9195 H       1  UNL1        0.0625
     31 H           1.3609   -2.0693    3.6945 H       1  UNL1        0.0618
     32 H          -0.6735   -2.5483    2.4429 H       1  UNL1        0.0637
@<TRIPOS>BOND
     1     1     2    1
     2     2     3    1
     3     3     4   ar
     4     4     5   ar
     5     5     6   ar
     6     6     7   ar
     7     7     8   ar
     8     8     9    1
     9     9    10    1
    10    10    11   ar
    11    11    12    1
    12    12    13   ar
    13    13    14   ar
    14    14    15   ar
    15    15    16   ar
    16    11    17   ar
    17    17    18   ar
    18    18    19   ar
    19    19    20   ar
    20    20     2    1
    21     8     3   ar
    22    20    10   ar
    23    16    12   ar
    24     1    21    1
    25     1    22    1
    26     1    23    1
    27     4    24    1
    28     5    25    1
    29     6    26    1
    30     7    27    1
    31    13    28    1
    32    15    29    1
    33    17    30    1
    34    18    31    1
    35    19    32    1
