@<TRIPOS>MOLECULE
*****
 38 42 0 0 0
SMALL
GASTEIGER

@<TRIPOS>ATOM
      1 C          -4.3534   -1.4739    0.0631 C.3     1  UNL1        0.0060
      2 N          -3.0826   -0.7578    0.0978 N.pl3   1  UNL1       -0.2974
      3 C          -3.0706    0.6367    0.2741 C.ar    1  UNL1        0.0766
      4 C          -4.2027    1.4182    0.5482 C.ar    1  UNL1       -0.0368
      5 C          -4.1074    2.8080    0.7021 C.ar    1  UNL1       -0.0598
      6 C          -2.8752    3.4449    0.5900 C.ar    1  UNL1       -0.0582
      7 C          -1.7360    2.6903    0.3330 C.ar    1  UNL1       -0.0175
      8 C          -1.8371    1.3036    0.1860 C.ar    1  UNL1        0.1498
      9 O          -0.6542    0.6430   -0.0554 O.3     1  UNL1       -0.4515
     10 C          -0.6535   -0.7402   -0.0326 C.ar    1  UNL1        0.1619
     11 C           0.6020   -1.3830   -0.1025 C.ar    1  UNL1        0.0809
     12 C           1.8590   -0.6293   -0.1933 C.ar    1  UNL1        0.2320
     13 N           2.0829    0.6728   -0.1296 N.ar    1  UNL1       -0.2088
     14 C           3.4397    0.7909   -0.2755 C.ar    1  UNL1        0.1099
     15 C           4.2719    1.9173   -0.2938 C.ar    1  UNL1       -0.0326
     16 C           5.6508    1.7177   -0.4635 C.ar    1  UNL1       -0.0595
     17 C           6.1834    0.4300   -0.6106 C.ar    1  UNL1       -0.0582
     18 C           5.3628   -0.7048   -0.5941 C.ar    1  UNL1       -0.0171
     19 C           4.0053   -0.4625   -0.4241 C.ar    1  UNL1        0.1557
     20 O           3.0007   -1.3815   -0.3721 O.2     1  UNL1       -0.4352
     21 C           0.6249   -2.7875   -0.0752 C.ar    1  UNL1       -0.0458
     22 C          -0.5539   -3.5227    0.0238 C.ar    1  UNL1       -0.0590
     23 C          -1.7843   -2.8685    0.0874 C.ar    1  UNL1       -0.0367
     24 C          -1.8664   -1.4694    0.0472 C.ar    1  UNL1        0.0774
     25 H          -5.1581   -0.8767   -0.3790 H       1  UNL1        0.0432
     26 H          -4.6525   -1.7744    1.0729 H       1  UNL1        0.0432
     27 H          -4.3100   -2.3650   -0.5727 H       1  UNL1        0.0432
     28 H          -5.1842    0.9715    0.6646 H       1  UNL1        0.0637
     29 H          -5.0007    3.3904    0.9136 H       1  UNL1        0.0618
     30 H          -2.8007    4.5221    0.7088 H       1  UNL1        0.0619
     31 H          -0.7645    3.1704    0.2510 H       1  UNL1        0.0655
     32 H           3.8542    2.9111   -0.1797 H       1  UNL1        0.0640
     33 H           6.3152    2.5794   -0.4808 H       1  UNL1        0.0618
     34 H           7.2574    0.3085   -0.7406 H       1  UNL1        0.0619
     35 H           5.7550   -1.7073   -0.7064 H       1  UNL1        0.0655
     36 H           1.5688   -3.3275   -0.1218 H       1  UNL1        0.0626
     37 H          -0.5145   -4.6089    0.0557 H       1  UNL1        0.0618
     38 H          -2.6713   -3.4859    0.1841 H       1  UNL1        0.0637
@<TRIPOS>BOND
     1     1     2    1
     2     2     3    1
     3     3     4   ar
     4     4     5   ar
     5     5     6   ar
     6     6     7   ar
     7     7     8   ar
     8     8     9    1
     9     9    10    1
    10    10    11   ar
    11    11    12    1
    12    12    13   ar
    13    13    14   ar
    14    14    15   ar
    15    15    16   ar
    16    16    17   ar
    17    17    18   ar
    18    18    19   ar
    19    19    20   ar
    20    11    21   ar
    21    21    22   ar
    22    22    23   ar
    23    23    24   ar
    24    24     2    1
    25     8     3   ar
    26    24    10   ar
    27    20    12   ar
    28    19    14   ar
    29     1    25    1
    30     1    26    1
    31     1    27    1
    32     4    28    1
    33     5    29    1
    34     6    30    1
    35     7    31    1
    36    15    32    1
    37    16    33    1
    38    17    34    1
    39    18    35    1
    40    21    36    1
    41    22    37    1
    42    23    38    1
