@<TRIPOS>MOLECULE
*****
 35 38 0 0 0
SMALL
GASTEIGER

@<TRIPOS>ATOM
      1 C          -3.0909   -0.9618   -1.8759 C.3     1  UNL1        0.0060
      2 N          -2.0047   -0.6368   -0.9570 N.pl3   1  UNL1       -0.2975
      3 C          -2.2797   -0.4230    0.4051 C.ar    1  UNL1        0.0766
      4 C          -3.5319   -0.6187    1.0059 C.ar    1  UNL1       -0.0368
      5 C          -3.7296   -0.3759    2.3715 C.ar    1  UNL1       -0.0598
      6 C          -2.6759    0.0631    3.1671 C.ar    1  UNL1       -0.0582
      7 C          -1.4204    0.2507    2.5991 C.ar    1  UNL1       -0.0175
      8 C          -1.2280    0.0019    1.2364 C.ar    1  UNL1        0.1498
      9 O           0.0520    0.2039    0.7684 O.3     1  UNL1       -0.4516
     10 C           0.3371   -0.1664   -0.5357 C.ar    1  UNL1        0.1589
     11 C           1.6919   -0.0846   -0.9269 C.ar    1  UNL1        0.0458
     12 C           2.7442    0.4002   -0.0185 C.ar    1  UNL1        0.0951
     13 N           3.6825   -0.5329    0.2913 N.ar    1  UNL1       -0.2340
     14 C           4.6595   -0.1559    1.1279 C.ar    1  UNL1        0.1167
     15 N           4.8007    1.0626    1.6662 N.ar    1  UNL1       -0.2424
     16 C           3.8630    1.9675    1.3163 C.ar    1  UNL1        0.0487
     17 C           2.8074    1.6958    0.4704 C.ar    1  UNL1        0.0958
     18 C           1.8906    2.7280    0.1179 C.1     1  UNL1        0.1028
     19 N           1.1794    3.6023   -0.1588 N.1     1  UNL1       -0.1908
     20 C           2.0332   -0.5044   -2.2210 C.ar    1  UNL1       -0.0489
     21 C           1.0570   -0.9672   -3.0992 C.ar    1  UNL1       -0.0591
     22 C          -0.2811   -1.0166   -2.7003 C.ar    1  UNL1       -0.0367
     23 C          -0.6744   -0.6101   -1.4175 C.ar    1  UNL1        0.0773
     24 H          -3.2519   -2.0445   -1.9114 H       1  UNL1        0.0432
     25 H          -4.0318   -0.4746   -1.5987 H       1  UNL1        0.0432
     26 H          -2.8983   -0.6002   -2.8918 H       1  UNL1        0.0432
     27 H          -4.3829   -0.9773    0.4365 H       1  UNL1        0.0637
     28 H          -4.7113   -0.5341    2.8114 H       1  UNL1        0.0618
     29 H          -2.8306    0.2525    4.2258 H       1  UNL1        0.0619
     30 H          -0.5892    0.5852    3.2129 H       1  UNL1        0.0655
     31 H           5.4013   -0.9027    1.3897 H       1  UNL1        0.1047
     32 H           4.0020    2.9548    1.7516 H       1  UNL1        0.0844
     33 H           3.0721   -0.4803   -2.5459 H       1  UNL1        0.0625
     34 H           1.3375   -1.2973   -4.0966 H       1  UNL1        0.0618
     35 H          -0.9990   -1.4033   -3.4163 H       1  UNL1        0.0637
@<TRIPOS>BOND
     1     1     2    1
     2     2     3    1
     3     3     4   ar
     4     4     5   ar
     5     5     6   ar
     6     6     7   ar
     7     7     8   ar
     8     8     9    1
     9     9    10    1
    10    10    11   ar
    11    11    12    1
    12    12    13   ar
    13    13    14   ar
    14    14    15   ar
    15    15    16   ar
    16    16    17   ar
    17    17    18    1
    18    18    19    3
    19    11    20   ar
    20    20    21   ar
    21    21    22   ar
    22    22    23   ar
    23    23     2    1
    24     8     3   ar
    25    23    10   ar
    26    17    12   ar
    27     1    24    1
    28     1    25    1
    29     1    26    1
    30     4    27    1
    31     5    28    1
    32     6    29    1
    33     7    30    1
    34    14    31    1
    35    16    32    1
    36    20    33    1
    37    21    34    1
    38    22    35    1
