@<TRIPOS>MOLECULE
*****
 37 42 0 0 0
SMALL
GASTEIGER

@<TRIPOS>ATOM
      1 SI         -3.5784   -2.4175   -0.6468 Si      1  UNL1        0.0000
      2 C          -5.3046   -1.6937   -0.5255 C.2     1  UNL1        0.0000
      3 C          -5.3112   -0.3818   -0.2319 C.2     1  UNL1        0.0000
      4 C          -3.9682    0.1750   -0.0754 C.ar    1  UNL1        0.0000
      5 C          -2.8431   -0.6977   -0.2443 C.ar    1  UNL1        0.0000
      6 C          -1.4602   -0.3069   -0.1241 C.ar    1  UNL1        0.0000
      7 C          -0.3958   -1.2175   -0.3028 C.ar    1  UNL1        0.0000
      8 C           0.9298   -0.7969   -0.1773 C.ar    1  UNL1        0.0000
      9 SI          2.5134   -1.8077   -0.3661 Si      1  UNL1        0.0000
     10 C           3.4906   -0.2416    0.0076 C.2     1  UNL1        0.0000
     11 C           2.6966    0.8273    0.2282 C.2     1  UNL1        0.0000
     12 C           1.2551    0.5379    0.1293 C.ar    1  UNL1        0.0000
     13 C           0.2455    1.4688    0.3139 C.ar    1  UNL1        0.0000
     14 C          -1.1080    1.0597    0.1903 C.ar    1  UNL1        0.0000
     15 C          -2.2396    1.9211    0.3565 C.ar    1  UNL1        0.0000
     16 C          -2.1632    3.2625    0.6587 C.ar    1  UNL1        0.0000
     17 S          -3.7164    3.9866    0.7841 S.2     1  UNL1        0.0000
     18 C          -4.5125    2.5072    0.4340 C.ar    1  UNL1        0.0000
     19 C          -3.6147    1.4874    0.2268 C.ar    1  UNL1        0.0000
     20 C           4.9098   -0.2891    0.0306 C.ar    1  UNL1        0.0000
     21 N           5.6473   -1.3647   -0.1925 N.ar    1  UNL1        0.0000
     22 C           6.9941   -1.0809   -0.0972 C.ar    1  UNL1        0.0000
     23 C           7.3027    0.2236    0.2018 C.ar    1  UNL1        0.0000
     24 S           5.8642    1.1288    0.3701 S.2     1  UNL1        0.0000
     25 H          -3.2458   -2.8614   -2.0234 H       1  UNL1        0.0000
     26 H          -3.3037   -3.4092    0.4226 H       1  UNL1        0.0000
     27 H          -6.1735   -2.3139   -0.6849 H       1  UNL1        0.0000
     28 H          -6.2079    0.2110   -0.1203 H       1  UNL1        0.0000
     29 H          -0.5859   -2.2608   -0.5409 H       1  UNL1        0.0000
     30 H           2.6518   -2.2980   -1.7632 H       1  UNL1        0.0000
     31 H           2.5937   -2.8480    0.6934 H       1  UNL1        0.0000
     32 H           3.0302    1.8300    0.4606 H       1  UNL1        0.0000
     33 H           0.5006    2.4961    0.5500 H       1  UNL1        0.0000
     34 H          -1.2919    3.8807    0.8177 H       1  UNL1        0.0000
     35 H          -5.5925    2.4829    0.4030 H       1  UNL1        0.0000
     36 H           7.7150   -1.8733   -0.2572 H       1  UNL1        0.0000
     37 H           8.2765    0.6742    0.3255 H       1  UNL1        0.0000
@<TRIPOS>BOND
     1     1     2    1
     2     2     3    2
     3     3     4    1
     4     4     5   ar
     5     5     6   ar
     6     6     7   ar
     7     7     8   ar
     8     8     9    1
     9     9    10    1
    10    10    11    2
    11    11    12    1
    12    12    13   ar
    13    13    14   ar
    14    14    15   ar
    15    15    16   ar
    16    16    17   ar
    17    17    18   ar
    18    18    19   ar
    19    10    20    1
    20    20    21   ar
    21    21    22   ar
    22    22    23   ar
    23    23    24   ar
    24     5     1    1
    25    14     6   ar
    26    19    15   ar
    27    24    20   ar
    28    19     4   ar
    29    12     8   ar
    30     1    25    1
    31     1    26    1
    32     2    27    1
    33     3    28    1
    34     7    29    1
    35     9    30    1
    36     9    31    1
    37    11    32    1
    38    13    33    1
    39    16    34    1
    40    18    35    1
    41    22    36    1
    42    23    37    1
