@<TRIPOS>MOLECULE
*****
 31 34 0 0 0
SMALL
GASTEIGER

@<TRIPOS>ATOM
      1 C          -2.2252    2.4440   -0.0840 C.3     1  UNL1        0.0060
      2 N          -1.3789    1.2571   -0.0175 N.pl3   1  UNL1       -0.2974
      3 C          -1.8937    0.0600    0.5092 C.ar    1  UNL1        0.0766
      4 C          -3.2316   -0.1414    0.8790 C.ar    1  UNL1       -0.0368
      5 C          -3.6641   -1.3659    1.4058 C.ar    1  UNL1       -0.0598
      6 C          -2.7671   -2.4171    1.5688 C.ar    1  UNL1       -0.0582
      7 C          -1.4383   -2.2469    1.1964 C.ar    1  UNL1       -0.0175
      8 C          -1.0145   -1.0244    0.6663 C.ar    1  UNL1        0.1498
      9 O           0.3154   -0.9544    0.3185 O.3     1  UNL1       -0.4516
     10 C           0.7562    0.1505   -0.3865 C.ar    1  UNL1        0.1605
     11 C           2.0718    0.1154   -0.8957 C.ar    1  UNL1        0.0665
     12 C           2.9712   -1.0283   -0.7312 C.ar    1  UNL1        0.2054
     13 N           4.3369   -0.9063   -0.9319 N.ar    1  UNL1       -0.1941
     14 C           4.7643   -2.1215   -0.7067 C.ar    1  UNL1        0.2147
     15 O           3.7829   -2.9994   -0.3945 O.2     1  UNL1       -0.3411
     16 N           2.5922   -2.2801   -0.4182 N.ar    1  UNL1       -0.0563
     17 C           2.5452    1.2351   -1.5985 C.ar    1  UNL1       -0.0473
     18 C           1.7325    2.3466   -1.8024 C.ar    1  UNL1       -0.0591
     19 C           0.4331    2.3650   -1.2949 C.ar    1  UNL1       -0.0367
     20 C          -0.0796    1.2817   -0.5654 C.ar    1  UNL1        0.0774
     21 H          -2.9449    2.4915    0.7402 H       1  UNL1        0.0432
     22 H          -2.7735    2.4720   -1.0317 H       1  UNL1        0.0432
     23 H          -1.6489    3.3699    0.0190 H       1  UNL1        0.0432
     24 H          -3.9766    0.6372    0.7550 H       1  UNL1        0.0637
     25 H          -4.7069   -1.4957    1.6847 H       1  UNL1        0.0618
     26 H          -3.1019   -3.3666    1.9771 H       1  UNL1        0.0619
     27 H          -0.7276   -3.0612    1.3086 H       1  UNL1        0.0655
     28 H           5.7723   -2.5053   -0.7391 H       1  UNL1        0.1283
     29 H           3.5559    1.2429   -2.0040 H       1  UNL1        0.0626
     30 H           2.1102    3.1995   -2.3611 H       1  UNL1        0.0618
     31 H          -0.1667    3.2461   -1.4980 H       1  UNL1        0.0637
@<TRIPOS>BOND
     1     1     2    1
     2     2     3    1
     3     3     4   ar
     4     4     5   ar
     5     5     6   ar
     6     6     7   ar
     7     7     8   ar
     8     8     9    1
     9     9    10    1
    10    10    11   ar
    11    11    12    1
    12    12    13   ar
    13    13    14   ar
    14    14    15   ar
    15    15    16   ar
    16    11    17   ar
    17    17    18   ar
    18    18    19   ar
    19    19    20   ar
    20    20     2    1
    21     8     3   ar
    22    20    10   ar
    23    16    12   ar
    24     1    21    1
    25     1    22    1
    26     1    23    1
    27     4    24    1
    28     5    25    1
    29     6    26    1
    30     7    27    1
    31    14    28    1
    32    17    29    1
    33    18    30    1
    34    19    31    1
