@<TRIPOS>MOLECULE
*****
 44 49 0 0 0
SMALL
GASTEIGER

@<TRIPOS>ATOM
      1 C          -4.8944   -0.8369   -1.7796 C.3     1  UNL1        0.0060
      2 N          -4.1958   -0.4673   -0.5539 N.pl3   1  UNL1       -0.2975
      3 C          -4.9306   -0.1332    0.5998 C.ar    1  UNL1        0.0766
      4 C          -6.3298   -0.0510    0.6570 C.ar    1  UNL1       -0.0368
      5 C          -6.9914    0.2781    1.8477 C.ar    1  UNL1       -0.0598
      6 C          -6.2666    0.5373    3.0071 C.ar    1  UNL1       -0.0582
      7 C          -4.8776    0.4765    2.9750 C.ar    1  UNL1       -0.0175
      8 C          -4.2216    0.1525    1.7831 C.ar    1  UNL1        0.1497
      9 O          -2.8436    0.1324    1.8473 O.3     1  UNL1       -0.4523
     10 C          -2.1538   -0.0367    0.6640 C.ar    1  UNL1        0.1504
     11 C          -0.7623    0.0994    0.7509 C.ar    1  UNL1       -0.0083
     12 C           0.0551   -0.0425   -0.3795 C.ar    1  UNL1        0.0040
     13 C           1.5229    0.0967   -0.2745 C.ar    1  UNL1        0.0731
     14 C           2.4004   -0.6606   -1.0532 C.ar    1  UNL1       -0.0117
     15 C           3.7622   -0.4296   -0.8512 C.ar    1  UNL1        0.0510
     16 N           4.8640   -1.0011   -1.4423 N.ar    1  UNL1       -0.3540
     17 C           6.0229   -0.4636   -0.9346 C.ar    1  UNL1        0.0504
     18 C           7.3559   -0.7343   -1.2361 C.ar    1  UNL1       -0.0196
     19 C           8.2808    0.0074   -0.5170 C.ar    1  UNL1        0.0295
     20 N           7.9734    0.9343    0.4165 N.ar    1  UNL1       -0.2625
     21 C           6.6684    1.1793    0.6927 C.ar    1  UNL1        0.0373
     22 C           5.6547    0.4840    0.0208 C.ar    1  UNL1        0.0269
     23 C           4.2259    0.5021    0.0741 C.ar    1  UNL1        0.0270
     24 C           3.2835    1.2164    0.8191 C.ar    1  UNL1        0.0380
     25 N           1.9559    1.0032    0.6396 N.ar    1  UNL1       -0.2542
     26 C          -0.5873   -0.3052   -1.6001 C.ar    1  UNL1       -0.0506
     27 C          -1.9832   -0.4437   -1.6848 C.ar    1  UNL1       -0.0361
     28 C          -2.7962   -0.3280   -0.5520 C.ar    1  UNL1        0.0767
     29 H          -5.1424    0.0555   -2.3641 H       1  UNL1        0.0432
     30 H          -4.3066   -1.5157   -2.4066 H       1  UNL1        0.0432
     31 H          -5.8152   -1.3959   -1.5813 H       1  UNL1        0.0432
     32 H          -6.9438   -0.2262   -0.2198 H       1  UNL1        0.0637
     33 H          -8.0771    0.3343    1.8641 H       1  UNL1        0.0618
     34 H          -6.7805    0.7924    3.9297 H       1  UNL1        0.0619
     35 H          -4.3000    0.6856    3.8708 H       1  UNL1        0.0655
     36 H          -0.3155    0.3219    1.7183 H       1  UNL1        0.0661
     37 H           2.0504   -1.4007   -1.7615 H       1  UNL1        0.0660
     38 H           4.8278   -1.7175   -2.1533 H       1  UNL1        0.1659
     39 H           7.6574   -1.4662   -1.9737 H       1  UNL1        0.0653
     40 H           9.3462   -0.1334   -0.6825 H       1  UNL1        0.0830
     41 H           6.4713    1.9306    1.4489 H       1  UNL1        0.0836
     42 H           3.5519    1.9585    1.5623 H       1  UNL1        0.0836
     43 H          -0.0103   -0.3841   -2.5192 H       1  UNL1        0.0625
     44 H          -2.4051   -0.6246   -2.6677 H       1  UNL1        0.0637
@<TRIPOS>BOND
     1     1     2    1
     2     2     3    1
     3     3     4   ar
     4     4     5   ar
     5     5     6   ar
     6     6     7   ar
     7     7     8   ar
     8     8     9    1
     9     9    10    1
    10    10    11   ar
    11    11    12   ar
    12    12    13    1
    13    13    14   ar
    14    14    15   ar
    15    15    16   ar
    16    16    17   ar
    17    17    18   ar
    18    18    19   ar
    19    19    20   ar
    20    20    21   ar
    21    21    22   ar
    22    22    23   ar
    23    23    24   ar
    24    24    25   ar
    25    12    26   ar
    26    26    27   ar
    27    27    28   ar
    28    28     2    1
    29     8     3   ar
    30    28    10   ar
    31    25    13   ar
    32    23    15   ar
    33    22    17   ar
    34     1    29    1
    35     1    30    1
    36     1    31    1
    37     4    32    1
    38     5    33    1
    39     6    34    1
    40     7    35    1
    41    11    36    1
    42    14    37    1
    43    16    38    1
    44    18    39    1
    45    19    40    1
    46    21    41    1
    47    24    42    1
    48    26    43    1
    49    27    44    1
