@<TRIPOS>MOLECULE
*****
 39 43 0 0 0
SMALL
GASTEIGER

@<TRIPOS>ATOM
      1 C           3.7501   -2.2481    0.3267 C.3     1  UNL1        0.0060
      2 N           3.0849   -0.9946   -0.0126 N.pl3   1  UNL1       -0.2975
      3 C           3.8495    0.1487   -0.3118 C.ar    1  UNL1        0.0766
      4 C           5.2476    0.2173   -0.2218 C.ar    1  UNL1       -0.0368
      5 C           5.9409    1.3905   -0.5479 C.ar    1  UNL1       -0.0598
      6 C           5.2495    2.5232   -0.9670 C.ar    1  UNL1       -0.0582
      7 C           3.8618    2.4873   -1.0512 C.ar    1  UNL1       -0.0175
      8 C           3.1738    1.3157   -0.7193 C.ar    1  UNL1        0.1497
      9 O           1.7991    1.3825   -0.8183 O.3     1  UNL1       -0.4523
     10 C           1.0745    0.2999   -0.3612 C.ar    1  UNL1        0.1504
     11 C          -0.3154    0.4721   -0.3397 C.ar    1  UNL1       -0.0084
     12 C          -1.1476   -0.5512    0.1188 C.ar    1  UNL1        0.0019
     13 C          -2.6018   -0.3898    0.1578 C.ar    1  UNL1        0.0476
     14 C          -3.6177   -1.3119   -0.0335 C.ar    1  UNL1       -0.0272
     15 C          -4.8677   -0.6522    0.1247 C.ar    1  UNL1        0.0183
     16 C          -6.2067   -1.0528    0.0458 C.ar    1  UNL1        0.0367
     17 N          -7.2063   -0.1608    0.2586 N.ar    1  UNL1       -0.2625
     18 C          -6.8852    1.1201    0.5472 C.ar    1  UNL1        0.0295
     19 C          -5.5933    1.6155    0.6473 C.ar    1  UNL1       -0.0196
     20 C          -4.5870    0.6787    0.4231 C.ar    1  UNL1        0.0498
     21 N          -3.2185    0.8107    0.4402 N.ar    1  UNL1       -0.3541
     22 C          -0.5556   -1.7436    0.5469 C.ar    1  UNL1       -0.0506
     23 C           0.8375   -1.9125    0.5191 C.ar    1  UNL1       -0.0361
     24 C           1.6835   -0.8986    0.0543 C.ar    1  UNL1        0.0767
     25 H           3.9592   -2.2925    1.4009 H       1  UNL1        0.0432
     26 H           4.6888   -2.3829   -0.2211 H       1  UNL1        0.0432
     27 H           3.1559   -3.1246    0.0473 H       1  UNL1        0.0432
     28 H           5.8356   -0.6297    0.1150 H       1  UNL1        0.0637
     29 H           7.0252    1.4157   -0.4706 H       1  UNL1        0.0618
     30 H           5.7888    3.4316   -1.2209 H       1  UNL1        0.0619
     31 H           3.3111    3.3677   -1.3695 H       1  UNL1        0.0655
     32 H          -0.7266    1.4099   -0.7014 H       1  UNL1        0.0661
     33 H          -3.4784   -2.3578   -0.2752 H       1  UNL1        0.0645
     34 H          -6.5069   -2.0688   -0.1823 H       1  UNL1        0.0836
     35 H          -7.7377    1.7761    0.7051 H       1  UNL1        0.0830
     36 H          -5.3923    2.6522    0.8814 H       1  UNL1        0.0653
     37 H          -2.7313    1.6693    0.6532 H       1  UNL1        0.1659
     38 H          -1.1708   -2.5574    0.9250 H       1  UNL1        0.0625
     39 H           1.2297   -2.8548    0.8868 H       1  UNL1        0.0637
@<TRIPOS>BOND
     1     1     2    1
     2     2     3    1
     3     3     4   ar
     4     4     5   ar
     5     5     6   ar
     6     6     7   ar
     7     7     8   ar
     8     8     9    1
     9     9    10    1
    10    10    11   ar
    11    11    12   ar
    12    12    13    1
    13    13    14   ar
    14    14    15   ar
    15    15    16   ar
    16    16    17   ar
    17    17    18   ar
    18    18    19   ar
    19    19    20   ar
    20    20    21   ar
    21    12    22   ar
    22    22    23   ar
    23    23    24   ar
    24    24     2    1
    25     8     3   ar
    26    24    10   ar
    27    21    13   ar
    28    20    15   ar
    29     1    25    1
    30     1    26    1
    31     1    27    1
    32     4    28    1
    33     5    29    1
    34     6    30    1
    35     7    31    1
    36    11    32    1
    37    14    33    1
    38    16    34    1
    39    18    35    1
    40    19    36    1
    41    21    37    1
    42    22    38    1
    43    23    39    1
