@<TRIPOS>MOLECULE
*****
 44 48 0 0 0
SMALL
GASTEIGER

@<TRIPOS>ATOM
      1 C          -3.2653    2.6408   -3.4716 C.3     1  UNL1        0.0060
      2 N          -3.1677    1.4840   -2.5812 N.pl3   1  UNL1       -0.2975
      3 C          -4.1543    0.4796   -2.7032 C.ar    1  UNL1        0.0766
      4 C          -5.3248    0.6079   -3.4672 C.ar    1  UNL1       -0.0368
      5 C          -6.2583   -0.4339   -3.5505 C.ar    1  UNL1       -0.0598
      6 C          -6.0415   -1.6282   -2.8713 C.ar    1  UNL1       -0.0582
      7 C          -4.8950   -1.7776   -2.0994 C.ar    1  UNL1       -0.0175
      8 C          -3.9676   -0.7339   -2.0163 C.ar    1  UNL1        0.1497
      9 O          -2.8626   -0.9829   -1.2331 O.3     1  UNL1       -0.4523
     10 C          -1.9127    0.0126   -1.1320 C.ar    1  UNL1        0.1503
     11 C          -0.8099   -0.3014   -0.3288 C.ar    1  UNL1       -0.0097
     12 C           0.2257    0.6204   -0.1500 C.ar    1  UNL1       -0.0128
     13 C           1.3870    0.2807    0.6676 C.ar    1  UNL1        0.0004
     14 C           2.4994   -0.3544    0.1190 C.ar    1  UNL1       -0.0505
     15 C           3.5680   -0.7173    0.9395 C.ar    1  UNL1       -0.0336
     16 C           3.5205   -0.4418    2.3075 C.ar    1  UNL1        0.0891
     17 C           4.6046   -0.8585    3.2314 C.ar    1  UNL1        0.0891
     18 C           4.5440   -0.6316    4.6056 C.ar    1  UNL1       -0.0342
     19 C           5.5772   -1.0802    5.4271 C.ar    1  UNL1       -0.0583
     20 C           6.6504   -1.7564    4.8623 C.ar    1  UNL1       -0.0436
     21 C           6.6514   -1.9385    3.4933 C.ar    1  UNL1        0.0283
     22 N           5.6670   -1.5086    2.6728 N.ar    1  UNL1       -0.2534
     23 N           2.4520    0.1975    2.8559 N.ar    1  UNL1       -0.2528
     24 C           1.4248    0.5319    2.0349 C.ar    1  UNL1        0.0360
     25 C           0.1218    1.8579   -0.7869 C.ar    1  UNL1       -0.0520
     26 C          -0.9885    2.1681   -1.5897 C.ar    1  UNL1       -0.0362
     27 C          -2.0274    1.2513   -1.7930 C.ar    1  UNL1        0.0767
     28 H          -3.2412    2.3186   -4.5187 H       1  UNL1        0.0432
     29 H          -2.4644    3.3748   -3.3674 H       1  UNL1        0.0432
     30 H          -4.1932    3.1916   -3.2849 H       1  UNL1        0.0432
     31 H          -5.5454    1.5168   -4.0136 H       1  UNL1        0.0637
     32 H          -7.1558   -0.3102   -4.1517 H       1  UNL1        0.0618
     33 H          -6.7625   -2.4432   -2.9433 H       1  UNL1        0.0619
     34 H          -4.7150   -2.7083   -1.5654 H       1  UNL1        0.0655
     35 H          -0.7662   -1.2789    0.1499 H       1  UNL1        0.0661
     36 H           2.5398   -0.5811   -0.9470 H       1  UNL1        0.0625
     37 H           4.4259   -1.2302    0.5101 H       1  UNL1        0.0640
     38 H           3.6976   -0.1068    5.0390 H       1  UNL1        0.0639
     39 H           5.5369   -0.9050    6.4986 H       1  UNL1        0.0619
     40 H           7.4659   -2.1291    5.4727 H       1  UNL1        0.0633
     41 H           7.4623   -2.4636    3.0010 H       1  UNL1        0.0830
     42 H           0.5877    1.0149    2.5376 H       1  UNL1        0.0836
     43 H           0.9091    2.5996   -0.6651 H       1  UNL1        0.0624
     44 H          -0.9999    3.1524   -2.0371 H       1  UNL1        0.0637
@<TRIPOS>BOND
     1     1     2    1
     2     2     3    1
     3     3     4   ar
     4     4     5   ar
     5     5     6   ar
     6     6     7   ar
     7     7     8   ar
     8     8     9    1
     9     9    10    1
    10    10    11   ar
    11    11    12   ar
    12    12    13    1
    13    13    14   ar
    14    14    15   ar
    15    15    16   ar
    16    16    17    1
    17    17    18   ar
    18    18    19   ar
    19    19    20   ar
    20    20    21   ar
    21    21    22   ar
    22    16    23   ar
    23    23    24   ar
    24    12    25   ar
    25    25    26   ar
    26    26    27   ar
    27    27     2    1
    28     8     3   ar
    29    27    10   ar
    30    24    13   ar
    31    22    17   ar
    32     1    28    1
    33     1    29    1
    34     1    30    1
    35     4    31    1
    36     5    32    1
    37     6    33    1
    38     7    34    1
    39    11    35    1
    40    14    36    1
    41    15    37    1
    42    18    38    1
    43    19    39    1
    44    20    40    1
    45    21    41    1
    46    24    42    1
    47    25    43    1
    48    26    44    1
