@<TRIPOS>MOLECULE
*****
 44 48 0 0 0
SMALL
GASTEIGER

@<TRIPOS>ATOM
      1 C          -4.7317   -2.0538    1.2009 C.3     1  UNL1        0.0060
      2 N          -4.1171   -0.9524    0.4679 N.pl3   1  UNL1       -0.2975
      3 C          -4.9243    0.0469   -0.1076 C.ar    1  UNL1        0.0766
      4 C          -6.3175    0.1255    0.0352 C.ar    1  UNL1       -0.0368
      5 C          -7.0554    1.1468   -0.5780 C.ar    1  UNL1       -0.0598
      6 C          -6.4142    2.1156   -1.3442 C.ar    1  UNL1       -0.0582
      7 C          -5.0320    2.0696   -1.4908 C.ar    1  UNL1       -0.0175
      8 C          -4.2993    1.0513   -0.8726 C.ar    1  UNL1        0.1497
      9 O          -2.9336    1.0990   -1.0633 O.3     1  UNL1       -0.4523
     10 C          -2.1602    0.2026   -0.3536 C.ar    1  UNL1        0.1503
     11 C          -0.7754    0.3842   -0.4610 C.ar    1  UNL1       -0.0098
     12 C           0.1132   -0.4509    0.2261 C.ar    1  UNL1       -0.0143
     13 C           1.5693   -0.2670    0.1194 C.ar    1  UNL1       -0.0177
     14 C           2.2033   -0.2123   -1.1295 C.ar    1  UNL1       -0.0534
     15 C           3.5913   -0.0398   -1.2341 C.ar    1  UNL1       -0.0519
     16 C           4.4015    0.0910   -0.0934 C.ar    1  UNL1        0.0019
     17 C           5.8636    0.2795   -0.1786 C.ar    1  UNL1        0.0890
     18 C           6.5030    0.9069   -1.2492 C.ar    1  UNL1        0.0535
     19 N           7.8486    1.0767   -1.3301 N.ar    1  UNL1       -0.2596
     20 C           8.5496    0.5955   -0.2827 C.ar    1  UNL1        0.0457
     21 C           7.9371   -0.0209    0.7925 C.ar    1  UNL1        0.0464
     22 N           6.5961   -0.1882    0.8693 N.ar    1  UNL1       -0.2520
     23 C           3.7585    0.0264    1.1549 C.ar    1  UNL1       -0.0519
     24 C           2.3720   -0.1465    1.2609 C.ar    1  UNL1       -0.0534
     25 C          -0.4348   -1.4658    1.0228 C.ar    1  UNL1       -0.0520
     26 C          -1.8231   -1.6488    1.1232 C.ar    1  UNL1       -0.0362
     27 C          -2.7168   -0.8262    0.4275 C.ar    1  UNL1        0.0767
     28 H          -5.6942   -2.3533    0.7727 H       1  UNL1        0.0432
     29 H          -4.1313   -2.9688    1.1595 H       1  UNL1        0.0432
     30 H          -4.8829   -1.7792    2.2503 H       1  UNL1        0.0432
     31 H          -6.8667   -0.5926    0.6347 H       1  UNL1        0.0637
     32 H          -8.1347    1.1834   -0.4514 H       1  UNL1        0.0618
     33 H          -6.9877    2.9066   -1.8195 H       1  UNL1        0.0619
     34 H          -4.5194    2.8252   -2.0791 H       1  UNL1        0.0655
     35 H          -0.4001    1.1987   -1.0759 H       1  UNL1        0.0661
     36 H           1.6195   -0.3227   -2.0419 H       1  UNL1        0.0624
     37 H           4.0252   -0.0326   -2.2316 H       1  UNL1        0.0624
     38 H           5.9489    1.3156   -2.0871 H       1  UNL1        0.0851
     39 H           9.6251    0.7208   -0.3290 H       1  UNL1        0.0845
     40 H           8.5109   -0.4014    1.6296 H       1  UNL1        0.0845
     41 H           4.3430    0.1171    2.0700 H       1  UNL1        0.0624
     42 H           1.9244   -0.1748    2.2525 H       1  UNL1        0.0624
     43 H           0.2203   -2.1399    1.5725 H       1  UNL1        0.0624
     44 H          -2.1720   -2.4470    1.7695 H       1  UNL1        0.0637
@<TRIPOS>BOND
     1     1     2    1
     2     2     3    1
     3     3     4   ar
     4     4     5   ar
     5     5     6   ar
     6     6     7   ar
     7     7     8   ar
     8     8     9    1
     9     9    10    1
    10    10    11   ar
    11    11    12   ar
    12    12    13    1
    13    13    14   ar
    14    14    15   ar
    15    15    16   ar
    16    16    17    1
    17    17    18   ar
    18    18    19   ar
    19    19    20   ar
    20    20    21   ar
    21    21    22   ar
    22    16    23   ar
    23    23    24   ar
    24    12    25   ar
    25    25    26   ar
    26    26    27   ar
    27    27     2    1
    28     8     3   ar
    29    27    10   ar
    30    24    13   ar
    31    22    17   ar
    32     1    28    1
    33     1    29    1
    34     1    30    1
    35     4    31    1
    36     5    32    1
    37     6    33    1
    38     7    34    1
    39    11    35    1
    40    14    36    1
    41    15    37    1
    42    18    38    1
    43    20    39    1
    44    21    40    1
    45    23    41    1
    46    24    42    1
    47    25    43    1
    48    26    44    1
