@<TRIPOS>MOLECULE
*****
 38 42 0 0 0
SMALL
GASTEIGER

@<TRIPOS>ATOM
      1 C          -3.5422   -2.0761   -0.4249 C.3     1  UNL1        0.0060
      2 N          -2.8579   -0.8376   -0.0698 N.pl3   1  UNL1       -0.2975
      3 C          -3.6036    0.2967    0.3021 C.ar    1  UNL1        0.0766
      4 C          -5.0039    0.3732    0.2738 C.ar    1  UNL1       -0.0368
      5 C          -5.6772    1.5364    0.6704 C.ar    1  UNL1       -0.0598
      6 C          -4.9632    2.6511    1.0996 C.ar    1  UNL1       -0.0582
      7 C          -3.5734    2.6075    1.1238 C.ar    1  UNL1       -0.0175
      8 C          -2.9057    1.4462    0.7219 C.ar    1  UNL1        0.1497
      9 O          -1.5278    1.5047    0.7655 O.3     1  UNL1       -0.4523
     10 C          -0.8285    0.4363    0.2413 C.ar    1  UNL1        0.1503
     11 C           0.5605    0.6022    0.1688 C.ar    1  UNL1       -0.0098
     12 C           1.3770   -0.4054   -0.3580 C.ar    1  UNL1       -0.0142
     13 C           2.8380   -0.2383   -0.4435 C.ar    1  UNL1       -0.0156
     14 C           3.3971    0.8967   -1.0656 C.ar    1  UNL1       -0.0519
     15 C           4.7819    1.0953   -1.1706 C.ar    1  UNL1       -0.0342
     16 C           5.5887    0.1010   -0.6225 C.ar    1  UNL1        0.0858
     17 N           6.9413   -0.0658   -0.5273 N.ar    1  UNL1       -0.2571
     18 N           7.2636   -1.2089    0.0998 N.ar    1  UNL1       -0.0673
     19 N           6.1289   -1.8137    0.4305 N.ar    1  UNL1       -0.1297
     20 C           5.0892   -1.0334   -0.0007 C.ar    1  UNL1        0.1130
     21 C           3.7021   -1.2137    0.0952 C.ar    1  UNL1       -0.0247
     22 C           0.7527   -1.5770   -0.8085 C.ar    1  UNL1       -0.0520
     23 C          -0.6391   -1.7417   -0.7296 C.ar    1  UNL1       -0.0362
     24 C          -1.4599   -0.7436   -0.1917 C.ar    1  UNL1        0.0767
     25 H          -3.7966   -2.0818   -1.4901 H       1  UNL1        0.0432
     26 H          -2.9406   -2.9637   -0.2020 H       1  UNL1        0.0432
     27 H          -4.4576   -2.2276    0.1570 H       1  UNL1        0.0432
     28 H          -5.6096   -0.4594   -0.0677 H       1  UNL1        0.0637
     29 H          -6.7636    1.5679    0.6399 H       1  UNL1        0.0618
     30 H          -5.4868    3.5518    1.4081 H       1  UNL1        0.0619
     31 H          -3.0051    3.4740    1.4493 H       1  UNL1        0.0655
     32 H           0.9965    1.5279    0.5369 H       1  UNL1        0.0661
     33 H           2.7371    1.6508   -1.4956 H       1  UNL1        0.0624
     34 H           5.1906    1.9748   -1.6559 H       1  UNL1        0.0639
     35 H           7.6855    0.5367   -0.8553 H       1  UNL1        0.1907
     36 H           3.3161   -2.0971    0.5937 H       1  UNL1        0.0646
     37 H           1.3471   -2.3789   -1.2439 H       1  UNL1        0.0624
     38 H          -1.0515   -2.6674   -1.1169 H       1  UNL1        0.0637
@<TRIPOS>BOND
     1     1     2    1
     2     2     3    1
     3     3     4   ar
     4     4     5   ar
     5     5     6   ar
     6     6     7   ar
     7     7     8   ar
     8     8     9    1
     9     9    10    1
    10    10    11   ar
    11    11    12   ar
    12    12    13    1
    13    13    14   ar
    14    14    15   ar
    15    15    16   ar
    16    16    17   ar
    17    17    18   ar
    18    18    19   ar
    19    19    20   ar
    20    20    21   ar
    21    12    22   ar
    22    22    23   ar
    23    23    24   ar
    24    24     2    1
    25     8     3   ar
    26    24    10   ar
    27    21    13   ar
    28    20    16   ar
    29     1    25    1
    30     1    26    1
    31     1    27    1
    32     4    28    1
    33     5    29    1
    34     6    30    1
    35     7    31    1
    36    11    32    1
    37    14    33    1
    38    15    34    1
    39    17    35    1
    40    21    36    1
    41    22    37    1
    42    23    38    1
