@<TRIPOS>MOLECULE
*****
 42 46 0 0 0
SMALL
GASTEIGER

@<TRIPOS>ATOM
      1 C           3.9121   -1.4057    2.5427 C.3     1  UNL1        0.0060
      2 N           3.3979   -0.8178    1.3105 N.pl3   1  UNL1       -0.2975
      3 C           4.2867   -0.2538    0.3760 C.ar    1  UNL1        0.0766
      4 C           5.6694   -0.1220    0.5716 C.ar    1  UNL1       -0.0368
      5 C           6.4929    0.4415   -0.4123 C.ar    1  UNL1       -0.0598
      6 C           5.9496    0.8904   -1.6123 C.ar    1  UNL1       -0.0582
      7 C           4.5795    0.7851   -1.8264 C.ar    1  UNL1       -0.0175
      8 C           3.7609    0.2269   -0.8394 C.ar    1  UNL1        0.1497
      9 O           2.4144    0.1802   -1.1369 O.3     1  UNL1       -0.4523
     10 C           1.5552   -0.2274   -0.1365 C.ar    1  UNL1        0.1503
     11 C           0.1906   -0.1163   -0.4317 C.ar    1  UNL1       -0.0098
     12 C          -0.7786   -0.4844    0.5085 C.ar    1  UNL1       -0.0142
     13 C          -2.2149   -0.3647    0.2099 C.ar    1  UNL1       -0.0158
     14 C          -3.0766   -1.4661    0.3595 C.ar    1  UNL1       -0.0532
     15 C          -4.4417   -1.3554    0.0855 C.ar    1  UNL1       -0.0484
     16 C          -4.9588   -0.1334   -0.3470 C.ar    1  UNL1        0.0450
     17 C          -6.4089    0.0090   -0.6396 C.ar    1  UNL1        0.1894
     18 O          -7.1932   -0.9236   -0.5068 O.2     1  UNL1       -0.2872
     19 C          -6.8871    1.3324   -1.1109 C.ar    1  UNL1        0.0017
     20 C          -5.9977    2.3245   -1.2243 C.ar    1  UNL1        0.0058
     21 N          -4.6683    2.2109   -0.9215 N.ar    1  UNL1       -0.3604
     22 C          -4.1233    0.9822   -0.5196 C.ar    1  UNL1        0.0507
     23 C          -2.7604    0.8578   -0.2285 C.ar    1  UNL1       -0.0300
     24 C          -0.3326   -0.9626    1.7483 C.ar    1  UNL1       -0.0520
     25 C           1.0360   -1.0768    2.0388 C.ar    1  UNL1       -0.0362
     26 C           2.0108   -0.7232    1.0985 C.ar    1  UNL1        0.0767
     27 H           4.8850   -1.8881    2.3996 H       1  UNL1        0.0432
     28 H           4.0088   -0.6413    3.3210 H       1  UNL1        0.0432
     29 H           3.2732   -2.2119    2.9187 H       1  UNL1        0.0432
     30 H           6.1437   -0.4396    1.4940 H       1  UNL1        0.0637
     31 H           7.5620    0.5303   -0.2351 H       1  UNL1        0.0618
     32 H           6.5897    1.3258   -2.3747 H       1  UNL1        0.0619
     33 H           4.1430    1.1392   -2.7558 H       1  UNL1        0.0655
     34 H          -0.1045    0.2552   -1.4102 H       1  UNL1        0.0661
     35 H          -2.6841   -2.4282    0.6851 H       1  UNL1        0.0624
     36 H          -5.0951   -2.2161    0.2076 H       1  UNL1        0.0625
     37 H          -7.9366    1.4357   -1.3478 H       1  UNL1        0.0670
     38 H          -6.2954    3.3094   -1.5730 H       1  UNL1        0.0808
     39 H          -4.0443    2.9730   -1.1588 H       1  UNL1        0.1653
     40 H          -2.1114    1.7250   -0.3306 H       1  UNL1        0.0644
     41 H          -1.0526   -1.2409    2.5163 H       1  UNL1        0.0624
     42 H           1.3049   -1.4352    3.0269 H       1  UNL1        0.0637
@<TRIPOS>BOND
     1     1     2    1
     2     2     3    1
     3     3     4   ar
     4     4     5   ar
     5     5     6   ar
     6     6     7   ar
     7     7     8   ar
     8     8     9    1
     9     9    10    1
    10    10    11   ar
    11    11    12   ar
    12    12    13    1
    13    13    14   ar
    14    14    15   ar
    15    15    16   ar
    16    16    17   ar
    17    17    18    2
    18    17    19   ar
    19    19    20   ar
    20    20    21   ar
    21    21    22   ar
    22    22    23   ar
    23    12    24   ar
    24    24    25   ar
    25    25    26   ar
    26    26     2    1
    27     8     3   ar
    28    26    10   ar
    29    23    13   ar
    30    22    16   ar
    31     1    27    1
    32     1    28    1
    33     1    29    1
    34     4    30    1
    35     5    31    1
    36     6    32    1
    37     7    33    1
    38    11    34    1
    39    14    35    1
    40    15    36    1
    41    19    37    1
    42    20    38    1
    43    21    39    1
    44    23    40    1
    45    24    41    1
    46    25    42    1
