@<TRIPOS>MOLECULE
*****
 45 50 0 0 0
SMALL
GASTEIGER

@<TRIPOS>ATOM
      1 C           4.5566    0.7666    2.8076 C.3     1  UNL1        0.0060
      2 N           4.0875    0.2454    1.5285 N.pl3   1  UNL1       -0.2975
      3 C           5.0146   -0.2031    0.5689 C.ar    1  UNL1        0.0766
      4 C           6.4078   -0.1137    0.7052 C.ar    1  UNL1       -0.0368
      5 C           7.2687   -0.5934   -0.2911 C.ar    1  UNL1       -0.0598
      6 C           6.7538   -1.1690   -1.4488 C.ar    1  UNL1       -0.0582
      7 C           5.3760   -1.2571   -1.6161 C.ar    1  UNL1       -0.0175
      8 C           4.5208   -0.7722   -0.6214 C.ar    1  UNL1        0.1497
      9 O           3.1717   -0.8896   -0.8855 O.3     1  UNL1       -0.4523
     10 C           2.2957   -0.2933   -0.0010 C.ar    1  UNL1        0.1503
     11 C           0.9491   -0.3056   -0.3855 C.ar    1  UNL1       -0.0098
     12 C          -0.0320    0.2802    0.4224 C.ar    1  UNL1       -0.0142
     13 C          -1.4497    0.2756    0.0252 C.ar    1  UNL1       -0.0158
     14 C          -1.8463    0.7999   -1.2148 C.ar    1  UNL1       -0.0533
     15 C          -3.1899    0.8095   -1.6173 C.ar    1  UNL1       -0.0514
     16 C          -4.1723    0.2788   -0.7600 C.ar    1  UNL1        0.0090
     17 C          -3.7684   -0.2420    0.4711 C.ar    1  UNL1        0.0492
     18 C          -2.4292   -0.2556    0.8857 C.ar    1  UNL1       -0.0300
     19 N          -4.9004   -0.6960    1.1088 N.ar    1  UNL1       -0.3390
     20 C          -6.0046   -0.4791    0.3355 C.ar    1  UNL1        0.1391
     21 N          -7.2588   -0.8132    0.6920 N.ar    1  UNL1       -0.2375
     22 C          -8.1742   -0.4934   -0.2514 C.ar    1  UNL1        0.0299
     23 C          -7.9040    0.1142   -1.4711 C.ar    1  UNL1       -0.0429
     24 C          -6.5842    0.4389   -1.7881 C.ar    1  UNL1       -0.0490
     25 C          -5.5909    0.1288   -0.8431 C.ar    1  UNL1        0.0264
     26 C           0.3833    0.8784    1.6201 C.ar    1  UNL1       -0.0520
     27 C           1.7334    0.8854    2.0040 C.ar    1  UNL1       -0.0362
     28 C           2.7185    0.2888    1.2080 C.ar    1  UNL1        0.0767
     29 H           5.4562    0.2522    3.1621 H       1  UNL1        0.0432
     30 H           3.8314    0.6098    3.6132 H       1  UNL1        0.0432
     31 H           4.7705    1.8379    2.7302 H       1  UNL1        0.0432
     32 H           6.8634    0.3404    1.5786 H       1  UNL1        0.0637
     33 H           8.3449   -0.5125   -0.1591 H       1  UNL1        0.0618
     34 H           7.4224   -1.5413   -2.2200 H       1  UNL1        0.0619
     35 H           4.9621   -1.6967   -2.5190 H       1  UNL1        0.0655
     36 H           0.6745   -0.7846   -1.3225 H       1  UNL1        0.0661
     37 H          -1.1019    1.2234   -1.8875 H       1  UNL1        0.0624
     38 H          -3.4650    1.2254   -2.5820 H       1  UNL1        0.0624
     39 H          -2.1526   -0.6806    1.8467 H       1  UNL1        0.0644
     40 H          -4.9340   -1.1301    2.0178 H       1  UNL1        0.1673
     41 H          -9.1975   -0.7531    0.0108 H       1  UNL1        0.0830
     42 H          -8.7083    0.3318   -2.1654 H       1  UNL1        0.0633
     43 H          -6.3352    0.9136   -2.7309 H       1  UNL1        0.0625
     44 H          -0.3459    1.3643    2.2662 H       1  UNL1        0.0624
     45 H           1.9817    1.3861    2.9336 H       1  UNL1        0.0637
@<TRIPOS>BOND
     1     1     2    1
     2     2     3    1
     3     3     4   ar
     4     4     5   ar
     5     5     6   ar
     6     6     7   ar
     7     7     8   ar
     8     8     9    1
     9     9    10    1
    10    10    11   ar
    11    11    12   ar
    12    12    13    1
    13    13    14   ar
    14    14    15   ar
    15    15    16   ar
    16    16    17   ar
    17    17    18   ar
    18    17    19   ar
    19    19    20   ar
    20    20    21   ar
    21    21    22   ar
    22    22    23   ar
    23    23    24   ar
    24    24    25   ar
    25    12    26   ar
    26    26    27   ar
    27    27    28   ar
    28    28     2    1
    29     8     3   ar
    30    28    10   ar
    31    18    13   ar
    32    25    20   ar
    33    25    16   ar
    34     1    29    1
    35     1    30    1
    36     1    31    1
    37     4    32    1
    38     5    33    1
    39     6    34    1
    40     7    35    1
    41    11    36    1
    42    14    37    1
    43    15    38    1
    44    18    39    1
    45    19    40    1
    46    22    41    1
    47    23    42    1
    48    24    43    1
    49    26    44    1
    50    27    45    1
