@<TRIPOS>MOLECULE
*****
 42 46 0 0 0
SMALL
GASTEIGER

@<TRIPOS>ATOM
      1 C          -4.0513   -0.2821    2.5025 C.3     1  UNL1        0.0060
      2 N          -3.5109   -0.1242    1.1566 N.pl3   1  UNL1       -0.2975
      3 C          -4.3653   -0.2135    0.0412 C.ar    1  UNL1        0.0766
      4 C          -5.7305   -0.5285    0.1070 C.ar    1  UNL1       -0.0368
      5 C          -6.5200   -0.5881   -1.0493 C.ar    1  UNL1       -0.0598
      6 C          -5.9592   -0.3385   -2.2981 C.ar    1  UNL1       -0.0582
      7 C          -4.6048   -0.0376   -2.3936 C.ar    1  UNL1       -0.0175
      8 C          -3.8198    0.0158   -1.2373 C.ar    1  UNL1        0.1497
      9 O          -2.4854    0.3060   -1.4351 O.3     1  UNL1       -0.4523
     10 C          -1.6476    0.2249   -0.3412 C.ar    1  UNL1        0.1503
     11 C          -0.2824    0.3789   -0.6153 C.ar    1  UNL1       -0.0098
     12 C           0.6697    0.3007    0.4081 C.ar    1  UNL1       -0.0143
     13 C           2.1069    0.4607    0.1279 C.ar    1  UNL1       -0.0171
     14 C           2.5820    1.5545   -0.6172 C.ar    1  UNL1       -0.0533
     15 C           3.9454    1.7106   -0.8874 C.ar    1  UNL1       -0.0497
     16 C           4.8627    0.7693   -0.4127 C.ar    1  UNL1        0.0325
     17 C           4.4141   -0.3209    0.3294 C.ar    1  UNL1        0.0330
     18 C           3.0455   -0.4748    0.5967 C.ar    1  UNL1       -0.0425
     19 C           5.3723   -1.3209    0.8407 C.2     1  UNL1        0.1869
     20 O           5.0117   -2.2822    1.5069 O.2     1  UNL1       -0.2873
     21 C           6.8017   -1.1278    0.5273 C.2     1  UNL1       -0.0107
     22 C           7.2307   -0.0836   -0.1853 C.2     1  UNL1       -0.0107
     23 C           6.3003    0.9389   -0.7023 C.2     1  UNL1        0.1869
     24 O           6.7234    1.8886   -1.3480 O.2     1  UNL1       -0.2873
     25 C           0.2033    0.0586    1.7080 C.ar    1  UNL1       -0.0520
     26 C          -1.1662   -0.0900    1.9797 C.ar    1  UNL1       -0.0362
     27 C          -2.1237    0.0020    0.9631 C.ar    1  UNL1        0.0767
     28 H          -4.0738   -1.3399    2.7853 H       1  UNL1        0.0432
     29 H          -5.0619    0.1296    2.5963 H       1  UNL1        0.0432
     30 H          -3.4738    0.2702    3.2514 H       1  UNL1        0.0432
     31 H          -6.2163   -0.7487    1.0515 H       1  UNL1        0.0637
     32 H          -7.5762   -0.8339   -0.9693 H       1  UNL1        0.0618
     33 H          -6.5728   -0.3847   -3.1936 H       1  UNL1        0.0619
     34 H          -4.1541    0.1505   -3.3637 H       1  UNL1        0.0655
     35 H           0.0263    0.5438   -1.6450 H       1  UNL1        0.0661
     36 H           1.8867    2.3075   -0.9873 H       1  UNL1        0.0624
     37 H           4.2844    2.5687   -1.4656 H       1  UNL1        0.0625
     38 H           2.7092   -1.3415    1.1660 H       1  UNL1        0.0631
     39 H           7.4829   -1.8796    0.9094 H       1  UNL1        0.0657
     40 H           8.2800    0.0613   -0.4156 H       1  UNL1        0.0657
     41 H           0.9052   -0.0102    2.5376 H       1  UNL1        0.0624
     42 H          -1.4483   -0.2898    3.0081 H       1  UNL1        0.0637
@<TRIPOS>BOND
     1     1     2    1
     2     2     3    1
     3     3     4   ar
     4     4     5   ar
     5     5     6   ar
     6     6     7   ar
     7     7     8   ar
     8     8     9    1
     9     9    10    1
    10    10    11   ar
    11    11    12   ar
    12    12    13    1
    13    13    14   ar
    14    14    15   ar
    15    15    16   ar
    16    16    17   ar
    17    17    18   ar
    18    17    19    1
    19    19    20    2
    20    19    21    1
    21    21    22    2
    22    22    23    1
    23    23    24    2
    24    12    25   ar
    25    25    26   ar
    26    26    27   ar
    27    27     2    1
    28     8     3   ar
    29    27    10   ar
    30    18    13   ar
    31    23    16    1
    32     1    28    1
    33     1    29    1
    34     1    30    1
    35     4    31    1
    36     5    32    1
    37     6    33    1
    38     7    34    1
    39    11    35    1
    40    14    36    1
    41    15    37    1
    42    18    38    1
    43    21    39    1
    44    22    40    1
    45    25    41    1
    46    26    42    1
