@<TRIPOS>MOLECULE
*****
 40 44 0 0 0
SMALL
GASTEIGER

@<TRIPOS>ATOM
      1 C          -3.8576    1.8022   -1.4734 C.3     1  UNL1        0.0060
      2 N          -3.1989    0.7693   -0.6811 N.pl3   1  UNL1       -0.2975
      3 C          -3.9545   -0.2862   -0.1360 C.ar    1  UNL1        0.0766
      4 C          -5.3245   -0.4845   -0.3624 C.ar    1  UNL1       -0.0368
      5 C          -6.0116   -1.5552    0.2253 C.ar    1  UNL1       -0.0598
      6 C          -5.3412   -2.4544    1.0491 C.ar    1  UNL1       -0.0582
      7 C          -3.9796   -2.2894    1.2792 C.ar    1  UNL1       -0.0175
      8 C          -3.2972   -1.2223    0.6864 C.ar    1  UNL1        0.1497
      9 O          -1.9469   -1.1513    0.9610 O.3     1  UNL1       -0.4523
     10 C          -1.2080   -0.2049    0.2804 C.ar    1  UNL1        0.1503
     11 C           0.1778   -0.2689    0.4747 C.ar    1  UNL1       -0.0098
     12 C           1.0350    0.6296   -0.1712 C.ar    1  UNL1       -0.0143
     13 C           2.4932    0.5686    0.0250 C.ar    1  UNL1       -0.0170
     14 C           3.2192    1.7308    0.4083 C.ar    1  UNL1       -0.0533
     15 C           4.6066    1.7087    0.6028 C.ar    1  UNL1       -0.0483
     16 C           5.2475    0.5047    0.4067 C.ar    1  UNL1        0.0492
     17 C           4.5598   -0.6367    0.0356 C.ar    1  UNL1        0.0498
     18 C           3.1920   -0.6395   -0.1622 C.ar    1  UNL1       -0.0412
     19 C           5.5374   -1.7178   -0.0834 C.2     1  UNL1        0.2513
     20 O           5.2872   -2.8644   -0.3937 O.2     1  UNL1       -0.2698
     21 N           6.7483   -1.1753    0.2203 N.am    1  UNL1       -0.2483
     22 C           6.6609    0.1485    0.5239 C.2     1  UNL1        0.2512
     23 O           7.5563    0.9081    0.8321 O.2     1  UNL1       -0.2698
     24 C           0.4552    1.5847   -1.0179 C.ar    1  UNL1       -0.0520
     25 C          -0.9345    1.6479   -1.2071 C.ar    1  UNL1       -0.0362
     26 C          -1.7986    0.7625   -0.5523 C.ar    1  UNL1        0.0767
     27 H          -3.3381    2.7647   -1.4188 H       1  UNL1        0.0432
     28 H          -3.9233    1.4969   -2.5231 H       1  UNL1        0.0432
     29 H          -4.8651    2.0278   -1.1078 H       1  UNL1        0.0432
     30 H          -5.8933    0.1751   -1.0090 H       1  UNL1        0.0637
     31 H          -7.0739   -1.6851    0.0335 H       1  UNL1        0.0618
     32 H          -5.8754   -3.2838    1.5044 H       1  UNL1        0.0619
     33 H          -3.4440   -2.9899    1.9134 H       1  UNL1        0.0655
     34 H           0.5757   -1.0285    1.1438 H       1  UNL1        0.0661
     35 H           2.6866    2.6683    0.5705 H       1  UNL1        0.0624
     36 H           5.1543    2.5976    0.8983 H       1  UNL1        0.0625
     37 H           2.6858   -1.5527   -0.4635 H       1  UNL1        0.0631
     38 H           7.6111   -1.6949    0.2193 H       1  UNL1        0.1581
     39 H           1.0844    2.2894   -1.5591 H       1  UNL1        0.0624
     40 H          -1.3081    2.4003   -1.8936 H       1  UNL1        0.0637
@<TRIPOS>BOND
     1     1     2    1
     2     2     3    1
     3     3     4   ar
     4     4     5   ar
     5     5     6   ar
     6     6     7   ar
     7     7     8   ar
     8     8     9    1
     9     9    10    1
    10    10    11   ar
    11    11    12   ar
    12    12    13    1
    13    13    14   ar
    14    14    15   ar
    15    15    16   ar
    16    16    17   ar
    17    17    18   ar
    18    17    19    1
    19    19    20    2
    20    19    21   am
    21    21    22   am
    22    22    23    2
    23    12    24   ar
    24    24    25   ar
    25    25    26   ar
    26    26     2    1
    27     8     3   ar
    28    26    10   ar
    29    18    13   ar
    30    22    16    1
    31     1    27    1
    32     1    28    1
    33     1    29    1
    34     4    30    1
    35     5    31    1
    36     6    32    1
    37     7    33    1
    38    11    34    1
    39    14    35    1
    40    15    36    1
    41    18    37    1
    42    21    38    1
    43    24    39    1
    44    25    40    1
