@<TRIPOS>MOLECULE
*****
 45 52 0 0 0
SMALL
GASTEIGER

@<TRIPOS>ATOM
      1 SI         -4.8266    1.0985    2.1772 Si      1  UNL1        0.0000
      2 C          -6.4343    0.6658    1.2967 C.2     1  UNL1        0.0000
      3 C          -6.2438    0.1346    0.0760 C.2     1  UNL1        0.0000
      4 C          -4.8329    0.0214   -0.2721 C.ar    1  UNL1        0.0000
      5 C          -3.8437    0.4629    0.6683 C.ar    1  UNL1        0.0000
      6 C          -2.4103    0.4122    0.4606 C.ar    1  UNL1        0.0000
      7 C          -1.4749    0.8572    1.4132 C.ar    1  UNL1        0.0000
      8 C          -0.0777    0.7939    1.1791 C.ar    1  UNL1        0.0000
      9 C           0.8841    1.2426    2.1489 C.ar    1  UNL1        0.0000
     10 N           0.6104    1.7589    3.3618 N.ar    1  UNL1        0.0000
     11 S           2.0649    2.0958    4.0784 S.2     1  UNL1        0.0000
     12 N           3.1124    1.6056    2.8960 N.ar    1  UNL1        0.0000
     13 C           2.3691    1.1614    1.8660 C.ar    1  UNL1        0.0000
     14 C           2.8318    0.6431    0.6253 C.ar    1  UNL1        0.0000
     15 C           1.8422    0.2059   -0.2833 C.ar    1  UNL1        0.0000
     16 C           0.4460    0.2750   -0.0351 C.ar    1  UNL1        0.0000
     17 C          -0.4653   -0.1731   -0.9953 C.ar    1  UNL1        0.0000
     18 C          -1.8620   -0.1096   -0.7613 C.ar    1  UNL1        0.0000
     19 C          -2.8632   -0.5399   -1.6760 C.ar    1  UNL1        0.0000
     20 C          -2.6877   -1.0842   -2.9264 C.ar    1  UNL1        0.0000
     21 N          -3.9410   -1.3457   -3.4416 N.ar    1  UNL1        0.0000
     22 C          -4.9156   -0.9772   -2.5396 C.ar    1  UNL1        0.0000
     23 C          -4.2714   -0.4749   -1.4376 C.ar    1  UNL1        0.0000
     24 C           4.2478    0.5377    0.3243 C.ar    1  UNL1        0.0000
     25 S           5.2777    1.9436    0.2863 S.2     1  UNL1        0.0000
     26 C           6.6934    1.0403   -0.1608 C.ar    1  UNL1        0.0000
     27 C           6.3353   -0.2535   -0.2802 C.ar    1  UNL1        0.0000
     28 N           7.1392   -1.2995   -0.6264 N.ar    1  UNL1        0.0000
     29 C           6.2335   -2.3591   -0.5908 C.ar    1  UNL1        0.0000
     30 C           4.9395   -1.9261   -0.2278 C.ar    1  UNL1        0.0000
     31 C           5.0109   -0.5236   -0.0222 C.ar    1  UNL1        0.0000
     32 H          -4.6785    2.5620    2.3759 H       1  UNL1        0.0000
     33 H          -4.6134    0.2640    3.3861 H       1  UNL1        0.0000
     34 H          -7.3856    0.8480    1.7723 H       1  UNL1        0.0000
     35 H          -7.0327   -0.1811   -0.5914 H       1  UNL1        0.0000
     36 H          -1.8101    1.2653    2.3647 H       1  UNL1        0.0000
     37 H           2.1805   -0.2017   -1.2387 H       1  UNL1        0.0000
     38 H          -0.1048   -0.5769   -1.9384 H       1  UNL1        0.0000
     39 H          -1.8050   -1.3137   -3.5064 H       1  UNL1        0.0000
     40 H          -4.1191   -1.7502   -4.3518 H       1  UNL1        0.0000
     41 H          -5.9624   -1.1102   -2.7752 H       1  UNL1        0.0000
     42 H           7.6572    1.5072   -0.3044 H       1  UNL1        0.0000
     43 H           8.1281   -1.2822   -0.8436 H       1  UNL1        0.0000
     44 H           6.5855   -3.3557   -0.8249 H       1  UNL1        0.0000
     45 H           4.0725   -2.5651   -0.1251 H       1  UNL1        0.0000
@<TRIPOS>BOND
     1     1     2    1
     2     2     3    2
     3     3     4    1
     4     4     5   ar
     5     5     6   ar
     6     6     7   ar
     7     7     8   ar
     8     8     9   ar
     9     9    10   ar
    10    10    11   ar
    11    11    12   ar
    12    12    13   ar
    13    13    14   ar
    14    14    15   ar
    15    15    16   ar
    16    16    17   ar
    17    17    18   ar
    18    18    19   ar
    19    19    20   ar
    20    20    21   ar
    21    21    22   ar
    22    22    23   ar
    23    14    24    1
    24    24    25   ar
    25    25    26   ar
    26    26    27   ar
    27    27    28   ar
    28    28    29   ar
    29    29    30   ar
    30    30    31   ar
    31     5     1    1
    32    18     6   ar
    33    23    19   ar
    34    31    24   ar
    35    23     4   ar
    36    31    27   ar
    37    16     8   ar
    38    13     9   ar
    39     1    32    1
    40     1    33    1
    41     2    34    1
    42     3    35    1
    43     7    36    1
    44    15    37    1
    45    17    38    1
    46    20    39    1
    47    21    40    1
    48    22    41    1
    49    26    42    1
    50    28    43    1
    51    29    44    1
    52    30    45    1
