@<TRIPOS>MOLECULE
*****
 45 50 0 0 0
SMALL
GASTEIGER

@<TRIPOS>ATOM
      1 C          -4.6843    2.7830   -0.4303 C.3     1  UNL1        0.0060
      2 N          -4.2053    1.4250   -0.1968 N.pl3   1  UNL1       -0.2975
      3 C          -5.1154    0.4070    0.1453 C.ar    1  UNL1        0.0766
      4 C          -6.4857    0.6063    0.3691 C.ar    1  UNL1       -0.0368
      5 C          -7.3323   -0.4613    0.6968 C.ar    1  UNL1       -0.0598
      6 C          -6.8249   -1.7519    0.8127 C.ar    1  UNL1       -0.0582
      7 C          -5.4673   -1.9755    0.6099 C.ar    1  UNL1       -0.0175
      8 C          -4.6255   -0.9061    0.2880 C.ar    1  UNL1        0.1497
      9 O          -3.2934   -1.2248    0.1213 O.3     1  UNL1       -0.4523
     10 C          -2.4062   -0.1816   -0.0515 C.ar    1  UNL1        0.1503
     11 C          -1.0518   -0.5383   -0.0655 C.ar    1  UNL1       -0.0098
     12 C          -0.0557    0.4333   -0.2167 C.ar    1  UNL1       -0.0143
     13 C           1.3704    0.0677   -0.2317 C.ar    1  UNL1       -0.0167
     14 C           1.8526   -0.9040   -1.1118 C.ar    1  UNL1       -0.0534
     15 C           3.2078   -1.2577   -1.1355 C.ar    1  UNL1       -0.0524
     16 C           4.1342   -0.6369   -0.2609 C.ar    1  UNL1       -0.0031
     17 C           3.6452    0.3305    0.6149 C.ar    1  UNL1        0.0211
     18 C           2.2802    0.6894    0.6401 C.ar    1  UNL1       -0.0397
     19 S           4.8925    0.9756    1.5999 S.2     1  UNL1       -0.0882
     20 C           6.0992   -0.0104    0.8835 C.ar    1  UNL1        0.0205
     21 C           7.4712   -0.0334    1.2064 C.ar    1  UNL1       -0.0474
     22 C           8.3165   -0.9050    0.5175 C.ar    1  UNL1       -0.0607
     23 C           7.8133   -1.7370   -0.4709 C.ar    1  UNL1       -0.0611
     24 C           6.4516   -1.7101   -0.7869 C.ar    1  UNL1       -0.0529
     25 C           5.5638   -0.8357   -0.1061 C.ar    1  UNL1       -0.0031
     26 C          -0.4649    1.7676   -0.3483 C.ar    1  UNL1       -0.0520
     27 C          -1.8236    2.1206   -0.3399 C.ar    1  UNL1       -0.0362
     28 C          -2.8254    1.1525   -0.2036 C.ar    1  UNL1        0.0767
     29 H          -5.6748    2.8006   -0.8972 H       1  UNL1        0.0432
     30 H          -4.7281    3.3415    0.5108 H       1  UNL1        0.0432
     31 H          -4.0527    3.3323   -1.1365 H       1  UNL1        0.0432
     32 H          -6.9318    1.5932    0.3091 H       1  UNL1        0.0637
     33 H          -8.3910   -0.2786    0.8643 H       1  UNL1        0.0618
     34 H          -7.4825   -2.5787    1.0665 H       1  UNL1        0.0619
     35 H          -5.0580   -2.9770    0.7062 H       1  UNL1        0.0655
     36 H          -0.7842   -1.5848    0.0605 H       1  UNL1        0.0661
     37 H           1.1745   -1.3967   -1.8070 H       1  UNL1        0.0624
     38 H           3.5461   -2.0162   -1.8368 H       1  UNL1        0.0624
     39 H           1.9368    1.4404    1.3481 H       1  UNL1        0.0635
     40 H           7.8673    0.6175    1.9809 H       1  UNL1        0.0629
     41 H           9.3763   -0.9296    0.7601 H       1  UNL1        0.0618
     42 H           8.4775   -2.4135   -1.0031 H       1  UNL1        0.0618
     43 H           6.0731   -2.3691   -1.5643 H       1  UNL1        0.0624
     44 H           0.2768    2.5554   -0.4700 H       1  UNL1        0.0624
     45 H          -2.0621    3.1747   -0.4332 H       1  UNL1        0.0637
@<TRIPOS>BOND
     1     1     2    1
     2     2     3    1
     3     3     4   ar
     4     4     5   ar
     5     5     6   ar
     6     6     7   ar
     7     7     8   ar
     8     8     9    1
     9     9    10    1
    10    10    11   ar
    11    11    12   ar
    12    12    13    1
    13    13    14   ar
    14    14    15   ar
    15    15    16   ar
    16    16    17   ar
    17    17    18   ar
    18    17    19   ar
    19    19    20   ar
    20    20    21   ar
    21    21    22   ar
    22    22    23   ar
    23    23    24   ar
    24    24    25   ar
    25    12    26   ar
    26    26    27   ar
    27    27    28   ar
    28    28     2    1
    29     8     3   ar
    30    28    10   ar
    31    18    13   ar
    32    25    20   ar
    33    25    16   ar
    34     1    29    1
    35     1    30    1
    36     1    31    1
    37     4    32    1
    38     5    33    1
    39     6    34    1
    40     7    35    1
    41    11    36    1
    42    14    37    1
    43    15    38    1
    44    18    39    1
    45    21    40    1
    46    22    41    1
    47    23    42    1
    48    24    43    1
    49    26    44    1
    50    27    45    1
