@<TRIPOS>MOLECULE
*****
 40 44 0 0 0
SMALL
GASTEIGER

@<TRIPOS>ATOM
      1 C           3.7061    0.4613    2.3850 C.3     1  UNL1        0.0060
      2 N           3.1778    0.2277    1.0453 N.pl3   1  UNL1       -0.2975
      3 C           4.0519   -0.1026   -0.0076 C.ar    1  UNL1        0.0766
      4 C           5.4311   -0.3127    0.1386 C.ar    1  UNL1       -0.0368
      5 C           6.2395   -0.6290   -0.9615 C.ar    1  UNL1       -0.0598
      6 C           5.6843   -0.7471   -2.2321 C.ar    1  UNL1       -0.0582
      7 C           4.3173   -0.5578   -2.4031 C.ar    1  UNL1       -0.0175
      8 C           3.5137   -0.2472   -1.3014 C.ar    1  UNL1        0.1497
      9 O           2.1687   -0.0936   -1.5685 O.3     1  UNL1       -0.4523
     10 C           1.3204    0.0678   -0.4917 C.ar    1  UNL1        0.1503
     11 C          -0.0469    0.0686   -0.7965 C.ar    1  UNL1       -0.0098
     12 C          -1.0077    0.2077    0.2120 C.ar    1  UNL1       -0.0142
     13 C          -2.4464    0.2095   -0.0994 C.ar    1  UNL1       -0.0156
     14 C          -2.9735    1.0507   -1.0857 C.ar    1  UNL1       -0.0519
     15 C          -4.3419    1.0448   -1.3709 C.ar    1  UNL1       -0.0337
     16 C          -5.2167    0.2109   -0.6908 C.ar    1  UNL1        0.0892
     17 N          -6.5301    0.2338   -0.9935 N.ar    1  UNL1       -0.2519
     18 C          -7.3213   -0.6055   -0.2919 C.ar    1  UNL1        0.0464
     19 C          -6.8228   -1.4432    0.6840 C.ar    1  UNL1        0.0464
     20 N          -5.5109   -1.4788    1.0018 N.ar    1  UNL1       -0.2519
     21 C          -4.7034   -0.6485    0.3109 C.ar    1  UNL1        0.0897
     22 C          -3.3396   -0.6325    0.5839 C.ar    1  UNL1       -0.0265
     23 C          -0.5483    0.3404    1.5301 C.ar    1  UNL1       -0.0520
     24 C           0.8230    0.3450    1.8311 C.ar    1  UNL1       -0.0362
     25 C           1.7887    0.2211    0.8256 C.ar    1  UNL1        0.0767
     26 H           3.0886    1.1587    2.9610 H       1  UNL1        0.0432
     27 H           3.7813   -0.4813    2.9375 H       1  UNL1        0.0432
     28 H           4.6915    0.9388    2.3665 H       1  UNL1        0.0432
     29 H           5.9139   -0.2503    1.1078 H       1  UNL1        0.0637
     30 H           7.3061   -0.7859   -0.8199 H       1  UNL1        0.0618
     31 H           6.3125   -0.9920   -3.0841 H       1  UNL1        0.0619
     32 H           3.8711   -0.6559   -3.3886 H       1  UNL1        0.0655
     33 H          -0.3503   -0.0586   -1.8331 H       1  UNL1        0.0661
     34 H          -2.3252    1.7302   -1.6362 H       1  UNL1        0.0624
     35 H          -4.7340    1.7074   -2.1386 H       1  UNL1        0.0640
     36 H          -8.3762   -0.5847   -0.5393 H       1  UNL1        0.0845
     37 H          -7.4665   -2.1136    1.2415 H       1  UNL1        0.0845
     38 H          -2.9674   -1.3120    1.3486 H       1  UNL1        0.0645
     39 H          -1.2588    0.4527    2.3476 H       1  UNL1        0.0624
     40 H           1.1005    0.4379    2.8757 H       1  UNL1        0.0637
@<TRIPOS>BOND
     1     1     2    1
     2     2     3    1
     3     3     4   ar
     4     4     5   ar
     5     5     6   ar
     6     6     7   ar
     7     7     8   ar
     8     8     9    1
     9     9    10    1
    10    10    11   ar
    11    11    12   ar
    12    12    13    1
    13    13    14   ar
    14    14    15   ar
    15    15    16   ar
    16    16    17   ar
    17    17    18   ar
    18    18    19   ar
    19    19    20   ar
    20    20    21   ar
    21    21    22   ar
    22    12    23   ar
    23    23    24   ar
    24    24    25   ar
    25    25     2    1
    26     8     3   ar
    27    25    10   ar
    28    22    13   ar
    29    21    16   ar
    30     1    26    1
    31     1    27    1
    32     1    28    1
    33     4    29    1
    34     5    30    1
    35     6    31    1
    36     7    32    1
    37    11    33    1
    38    14    34    1
    39    15    35    1
    40    18    36    1
    41    19    37    1
    42    22    38    1
    43    23    39    1
    44    24    40    1
