@<TRIPOS>MOLECULE
*****
 37 40 0 0 0
SMALL
GASTEIGER

@<TRIPOS>ATOM
      1 C           3.5811    1.2552    0.3905 C.3     1  UNL1        0.0060
      2 N           2.6336    0.1737    0.1430 N.pl3   1  UNL1       -0.2975
      3 C           3.0990   -1.0834   -0.2880 C.ar    1  UNL1        0.0766
      4 C           4.4410   -1.3847   -0.5636 C.ar    1  UNL1       -0.0368
      5 C           4.8293   -2.6658   -0.9783 C.ar    1  UNL1       -0.0598
      6 C           3.8818   -3.6734   -1.1311 C.ar    1  UNL1       -0.0582
      7 C           2.5423   -3.3985   -0.8779 C.ar    1  UNL1       -0.0175
      8 C           2.1590   -2.1170   -0.4692 C.ar    1  UNL1        0.1497
      9 O           0.8073   -1.9379   -0.2587 O.3     1  UNL1       -0.4523
     10 C           0.3682   -0.6551   -0.0015 C.ar    1  UNL1        0.1503
     11 C          -1.0217   -0.4939    0.0514 C.ar    1  UNL1       -0.0097
     12 C          -1.5852    0.7639    0.2913 C.ar    1  UNL1       -0.0131
     13 C          -3.0459    0.9344    0.3552 C.ar    1  UNL1       -0.0004
     14 C          -3.7547    0.3524    1.4243 C.ar    1  UNL1       -0.0528
     15 C          -5.1411    0.4829    1.5321 C.ar    1  UNL1       -0.0611
     16 C          -5.8494    1.1972    0.5716 C.ar    1  UNL1       -0.0605
     17 C          -5.1711    1.7806   -0.4977 C.ar    1  UNL1       -0.0438
     18 C          -3.7767    1.6540   -0.6133 C.ar    1  UNL1        0.0595
     19 C          -3.1343    2.2672   -1.7430 C.1     1  UNL1        0.0998
     20 N          -2.6432    2.7860   -2.6582 N.1     1  UNL1       -0.1909
     21 C          -0.7170    1.8471    0.4780 C.ar    1  UNL1       -0.0520
     22 C           0.6754    1.6796    0.4256 C.ar    1  UNL1       -0.0362
     23 C           1.2500    0.4232    0.1963 C.ar    1  UNL1        0.0767
     24 H           4.5274    0.8930    0.8060 H       1  UNL1        0.0432
     25 H           3.7889    1.8032   -0.5347 H       1  UNL1        0.0432
     26 H           3.2193    1.9619    1.1448 H       1  UNL1        0.0432
     27 H           5.2196   -0.6343   -0.4778 H       1  UNL1        0.0637
     28 H           5.8767   -2.8715   -1.1849 H       1  UNL1        0.0618
     29 H           4.1843   -4.6660   -1.4529 H       1  UNL1        0.0619
     30 H           1.7924   -4.1742   -1.0028 H       1  UNL1        0.0655
     31 H          -1.6581   -1.3614   -0.1077 H       1  UNL1        0.0661
     32 H          -3.2191   -0.2073    2.1906 H       1  UNL1        0.0624
     33 H          -5.6652    0.0258    2.3683 H       1  UNL1        0.0618
     34 H          -6.9290    1.2989    0.6539 H       1  UNL1        0.0618
     35 H          -5.7363    2.3347   -1.2458 H       1  UNL1        0.0631
     36 H          -1.1145    2.8429    0.6670 H       1  UNL1        0.0624
     37 H           1.2855    2.5669    0.5573 H       1  UNL1        0.0637
@<TRIPOS>BOND
     1     1     2    1
     2     2     3    1
     3     3     4   ar
     4     4     5   ar
     5     5     6   ar
     6     6     7   ar
     7     7     8   ar
     8     8     9    1
     9     9    10    1
    10    10    11   ar
    11    11    12   ar
    12    12    13    1
    13    13    14   ar
    14    14    15   ar
    15    15    16   ar
    16    16    17   ar
    17    17    18   ar
    18    18    19    1
    19    19    20    3
    20    12    21   ar
    21    21    22   ar
    22    22    23   ar
    23    23     2    1
    24     8     3   ar
    25    23    10   ar
    26    18    13   ar
    27     1    24    1
    28     1    25    1
    29     1    26    1
    30     4    27    1
    31     5    28    1
    32     6    29    1
    33     7    30    1
    34    11    31    1
    35    14    32    1
    36    15    33    1
    37    16    34    1
    38    17    35    1
    39    21    36    1
    40    22    37    1
