@<TRIPOS>MOLECULE
*****
 40 44 0 0 0
SMALL
GASTEIGER

@<TRIPOS>ATOM
      1 C          -3.7006   -2.3074    0.8850 C.3     1  UNL1        0.0060
      2 N          -3.2038   -1.0809    0.2708 N.pl3   1  UNL1       -0.2975
      3 C          -4.1109   -0.1301   -0.2339 C.ar    1  UNL1        0.0766
      4 C          -5.5057   -0.2195   -0.1162 C.ar    1  UNL1       -0.0368
      5 C          -6.3458    0.7640   -0.6553 C.ar    1  UNL1       -0.0598
      6 C          -5.8079    1.8618   -1.3202 C.ar    1  UNL1       -0.0582
      7 C          -4.4276    1.9828   -1.4388 C.ar    1  UNL1       -0.0175
      8 C          -3.5930    1.0014   -0.8945 C.ar    1  UNL1        0.1497
      9 O          -2.2389    1.2170   -1.0486 O.3     1  UNL1       -0.4523
     10 C          -1.3791    0.3527   -0.4013 C.ar    1  UNL1        0.1503
     11 C          -0.0221    0.6967   -0.4602 C.ar    1  UNL1       -0.0097
     12 C           0.9475   -0.0929    0.1697 C.ar    1  UNL1       -0.0128
     13 C           2.3732    0.2613    0.1190 C.ar    1  UNL1        0.0024
     14 C           2.8279    1.5430    0.4160 C.ar    1  UNL1        0.0361
     15 N           4.1261    1.9261    0.3861 N.ar    1  UNL1       -0.2528
     16 C           5.0356    0.9928    0.0455 C.ar    1  UNL1        0.0892
     17 C           6.3802    1.3255   -0.0024 C.ar    1  UNL1       -0.0328
     18 C           7.3403    0.3789   -0.3516 C.ar    1  UNL1       -0.0415
     19 C           6.9107   -0.8994   -0.6477 C.ar    1  UNL1        0.0284
     20 N           5.6153   -1.2755   -0.6156 N.ar    1  UNL1       -0.2534
     21 C           4.7034   -0.3398   -0.2753 C.ar    1  UNL1        0.0897
     22 C           3.3575   -0.6740   -0.2296 C.ar    1  UNL1       -0.0251
     23 C           0.5059   -1.2323    0.8579 C.ar    1  UNL1       -0.0520
     24 C          -0.8544   -1.5761    0.9107 C.ar    1  UNL1       -0.0362
     25 C          -1.8264   -0.7979    0.2721 C.ar    1  UNL1        0.0767
     26 H          -2.9993   -3.1417    0.7772 H       1  UNL1        0.0432
     27 H          -4.6159   -2.6715    0.4063 H       1  UNL1        0.0432
     28 H          -3.8987   -2.1497    1.9505 H       1  UNL1        0.0432
     29 H          -5.9783   -1.0444    0.4062 H       1  UNL1        0.0637
     30 H          -7.4240    0.6692   -0.5507 H       1  UNL1        0.0618
     31 H          -6.4607    2.6230   -1.7385 H       1  UNL1        0.0619
     32 H          -3.9960    2.8394   -1.9483 H       1  UNL1        0.0655
     33 H           0.2634    1.5876   -1.0153 H       1  UNL1        0.0661
     34 H           2.1375    2.3310    0.7092 H       1  UNL1        0.0836
     35 H           6.6821    2.3416    0.2369 H       1  UNL1        0.0640
     36 H           8.3924    0.6374   -0.3903 H       1  UNL1        0.0633
     37 H           7.6143   -1.6788   -0.9268 H       1  UNL1        0.0830
     38 H           3.0761   -1.6928   -0.4871 H       1  UNL1        0.0646
     39 H           1.2200   -1.8674    1.3804 H       1  UNL1        0.0624
     40 H          -1.1204   -2.4608    1.4797 H       1  UNL1        0.0637
@<TRIPOS>BOND
     1     1     2    1
     2     2     3    1
     3     3     4   ar
     4     4     5   ar
     5     5     6   ar
     6     6     7   ar
     7     7     8   ar
     8     8     9    1
     9     9    10    1
    10    10    11   ar
    11    11    12   ar
    12    12    13    1
    13    13    14   ar
    14    14    15   ar
    15    15    16   ar
    16    16    17   ar
    17    17    18   ar
    18    18    19   ar
    19    19    20   ar
    20    20    21   ar
    21    21    22   ar
    22    12    23   ar
    23    23    24   ar
    24    24    25   ar
    25    25     2    1
    26     8     3   ar
    27    25    10   ar
    28    22    13   ar
    29    21    16   ar
    30     1    26    1
    31     1    27    1
    32     1    28    1
    33     4    29    1
    34     5    30    1
    35     6    31    1
    36     7    32    1
    37    11    33    1
    38    14    34    1
    39    17    35    1
    40    18    36    1
    41    19    37    1
    42    22    38    1
    43    23    39    1
    44    24    40    1
