@<TRIPOS>MOLECULE
*****
 40 44 0 0 0
SMALL
GASTEIGER

@<TRIPOS>ATOM
      1 C          -3.8819   -2.1085    0.0870 C.3     1  UNL1        0.0060
      2 N          -3.2627   -0.7875    0.0833 N.pl3   1  UNL1       -0.2975
      3 C          -4.0700    0.3660    0.0923 C.ar    1  UNL1        0.0766
      4 C          -5.4709    0.3582    0.0232 C.ar    1  UNL1       -0.0368
      5 C          -6.2073    1.5502    0.0483 C.ar    1  UNL1       -0.0598
      6 C          -5.5572    2.7773    0.1383 C.ar    1  UNL1       -0.0582
      7 C          -4.1681    2.8148    0.1939 C.ar    1  UNL1       -0.0175
      8 C          -3.4374    1.6228    0.1633 C.ar    1  UNL1        0.1497
      9 O          -2.0654    1.7628    0.2070 O.3     1  UNL1       -0.4523
     10 C          -1.3038    0.6256    0.0297 C.ar    1  UNL1        0.1503
     11 C           0.0776    0.8360   -0.0718 C.ar    1  UNL1       -0.0097
     12 C           0.9547   -0.2377   -0.2654 C.ar    1  UNL1       -0.0128
     13 C           2.4037   -0.0278   -0.3754 C.ar    1  UNL1        0.0010
     14 C           2.9548    0.8947   -1.2573 C.ar    1  UNL1        0.0377
     15 N           4.2808    1.1359   -1.4058 N.ar    1  UNL1       -0.2351
     16 C           5.1475    0.4502   -0.6609 C.ar    1  UNL1        0.1597
     17 N           6.4500    0.6971   -0.8157 N.ar    1  UNL1       -0.2357
     18 C           7.3404    0.0117   -0.0659 C.ar    1  UNL1        0.0300
     19 C           6.9900   -0.9439    0.8655 C.ar    1  UNL1       -0.0429
     20 C           5.6402   -1.2096    1.0342 C.ar    1  UNL1       -0.0496
     21 C           4.6979   -0.5102    0.2658 C.ar    1  UNL1        0.0198
     22 C           3.3185   -0.7418    0.3994 C.ar    1  UNL1       -0.0419
     23 C           0.3977   -1.5213   -0.3567 C.ar    1  UNL1       -0.0520
     24 C          -0.9869   -1.7281   -0.2513 C.ar    1  UNL1       -0.0362
     25 C          -1.8680   -0.6607   -0.0433 C.ar    1  UNL1        0.0767
     26 H          -3.2485   -2.8650    0.5621 H       1  UNL1        0.0432
     27 H          -4.1067   -2.4298   -0.9356 H       1  UNL1        0.0432
     28 H          -4.8052   -2.1336    0.6757 H       1  UNL1        0.0432
     29 H          -6.0288   -0.5679   -0.0651 H       1  UNL1        0.0637
     30 H          -7.2927    1.5153   -0.0059 H       1  UNL1        0.0618
     31 H          -6.1295    3.7007    0.1581 H       1  UNL1        0.0619
     32 H          -3.6493    3.7671    0.2556 H       1  UNL1        0.0655
     33 H           0.4562    1.8526    0.0113 H       1  UNL1        0.0661
     34 H           2.3232    1.4921   -1.9117 H       1  UNL1        0.0836
     35 H           8.3816    0.2658   -0.2450 H       1  UNL1        0.0830
     36 H           7.7458   -1.4645    1.4422 H       1  UNL1        0.0633
     37 H           5.3262   -1.9552    1.7596 H       1  UNL1        0.0625
     38 H           2.9607   -1.4723    1.1217 H       1  UNL1        0.0631
     39 H           1.0384   -2.3846   -0.5301 H       1  UNL1        0.0624
     40 H          -1.3456   -2.7468   -0.3544 H       1  UNL1        0.0637
@<TRIPOS>BOND
     1     1     2    1
     2     2     3    1
     3     3     4   ar
     4     4     5   ar
     5     5     6   ar
     6     6     7   ar
     7     7     8   ar
     8     8     9    1
     9     9    10    1
    10    10    11   ar
    11    11    12   ar
    12    12    13    1
    13    13    14   ar
    14    14    15   ar
    15    15    16   ar
    16    16    17   ar
    17    17    18   ar
    18    18    19   ar
    19    19    20   ar
    20    20    21   ar
    21    21    22   ar
    22    12    23   ar
    23    23    24   ar
    24    24    25   ar
    25    25     2    1
    26     8     3   ar
    27    25    10   ar
    28    22    13   ar
    29    21    16   ar
    30     1    26    1
    31     1    27    1
    32     1    28    1
    33     4    29    1
    34     5    30    1
    35     6    31    1
    36     7    32    1
    37    11    33    1
    38    14    34    1
    39    18    35    1
    40    19    36    1
    41    20    37    1
    42    22    38    1
    43    23    39    1
    44    24    40    1
