@<TRIPOS>MOLECULE
*****
 38 42 0 0 0
SMALL
GASTEIGER

@<TRIPOS>ATOM
      1 C          -3.2834   -2.1044    1.4882 C.3     1  UNL1        0.0060
      2 N          -2.8673   -1.0172    0.6085 N.pl3   1  UNL1       -0.2975
      3 C          -3.8350   -0.2222   -0.0337 C.ar    1  UNL1        0.0766
      4 C          -5.2183   -0.3300    0.1719 C.ar    1  UNL1       -0.0368
      5 C          -6.1219    0.4922   -0.5145 C.ar    1  UNL1       -0.0598
      6 C          -5.6604    1.4442   -1.4187 C.ar    1  UNL1       -0.0582
      7 C          -4.2930    1.5820   -1.6310 C.ar    1  UNL1       -0.0175
      8 C          -3.3948    0.7629   -0.9395 C.ar    1  UNL1        0.1497
      9 O          -2.0587    0.9847   -1.2044 O.3     1  UNL1       -0.4523
     10 C          -1.1356    0.3024   -0.4368 C.ar    1  UNL1        0.1504
     11 C           0.2029    0.6728   -0.6370 C.ar    1  UNL1       -0.0082
     12 C           1.2396    0.0718    0.0911 C.ar    1  UNL1        0.0055
     13 C           2.6584    0.4423   -0.0878 C.ar    1  UNL1        0.0917
     14 C           3.0875    1.6688   -0.5767 C.ar    1  UNL1        0.0561
     15 N           4.3921    1.9929   -0.7375 N.ar    1  UNL1       -0.2310
     16 C           5.2895    1.0641   -0.3933 C.ar    1  UNL1        0.1977
     17 N           6.5896    1.3549   -0.5416 N.ar    1  UNL1       -0.2316
     18 C           7.4728    0.4015   -0.1835 C.ar    1  UNL1        0.0482
     19 C           7.0703   -0.8177    0.3141 C.ar    1  UNL1        0.0482
     20 N           5.7686   -1.1317    0.4726 N.ar    1  UNL1       -0.2316
     21 C           4.8710   -0.2002    0.1209 C.ar    1  UNL1        0.1983
     22 N           3.5725   -0.4932    0.2687 N.ar    1  UNL1       -0.2232
     23 C           0.8669   -0.9201    1.0152 C.ar    1  UNL1       -0.0505
     24 C          -0.4733   -1.2932    1.2098 C.ar    1  UNL1       -0.0361
     25 C          -1.5049   -0.6961    0.4804 C.ar    1  UNL1        0.0767
     26 H          -3.4392   -1.7348    2.5073 H       1  UNL1        0.0432
     27 H          -4.2036   -2.5890    1.1445 H       1  UNL1        0.0432
     28 H          -2.5534   -2.9202    1.5176 H       1  UNL1        0.0432
     29 H          -5.6321   -1.0429    0.8770 H       1  UNL1        0.0637
     30 H          -7.1894    0.3865   -0.3370 H       1  UNL1        0.0618
     31 H          -6.3627    2.0800   -1.9508 H       1  UNL1        0.0619
     32 H          -3.9212    2.3271   -2.3283 H       1  UNL1        0.0655
     33 H           0.4060    1.4331   -1.3867 H       1  UNL1        0.0661
     34 H           2.3947    2.4577   -0.8498 H       1  UNL1        0.0852
     35 H           8.5208    0.6500   -0.3094 H       1  UNL1        0.0846
     36 H           7.7841   -1.5816    0.6014 H       1  UNL1        0.0846
     37 H           1.6317   -1.4223    1.6087 H       1  UNL1        0.0625
     38 H          -0.6708   -2.0551    1.9565 H       1  UNL1        0.0637
@<TRIPOS>BOND
     1     1     2    1
     2     2     3    1
     3     3     4   ar
     4     4     5   ar
     5     5     6   ar
     6     6     7   ar
     7     7     8   ar
     8     8     9    1
     9     9    10    1
    10    10    11   ar
    11    11    12   ar
    12    12    13    1
    13    13    14   ar
    14    14    15   ar
    15    15    16   ar
    16    16    17   ar
    17    17    18   ar
    18    18    19   ar
    19    19    20   ar
    20    20    21   ar
    21    21    22   ar
    22    12    23   ar
    23    23    24   ar
    24    24    25   ar
    25    25     2    1
    26     8     3   ar
    27    25    10   ar
    28    22    13   ar
    29    21    16   ar
    30     1    26    1
    31     1    27    1
    32     1    28    1
    33     4    29    1
    34     5    30    1
    35     6    31    1
    36     7    32    1
    37    11    33    1
    38    14    34    1
    39    18    35    1
    40    19    36    1
    41    23    37    1
    42    24    38    1
