@<TRIPOS>MOLECULE
*****
 32 35 0 0 0
SMALL
GASTEIGER

@<TRIPOS>ATOM
      1 C          -1.9538    2.4366   -0.6710 C.3     1  UNL1        0.0060
      2 N          -1.5133    1.1005   -0.2840 N.pl3   1  UNL1       -0.2975
      3 C          -2.4618    0.0787   -0.0878 C.ar    1  UNL1        0.0766
      4 C          -3.8378    0.2136   -0.3240 C.ar    1  UNL1       -0.0368
      5 C          -4.7229   -0.8483   -0.0943 C.ar    1  UNL1       -0.0598
      6 C          -4.2494   -2.0708    0.3724 C.ar    1  UNL1       -0.0582
      7 C          -2.8877   -2.2364    0.6013 C.ar    1  UNL1       -0.0175
      8 C          -2.0076   -1.1755    0.3655 C.ar    1  UNL1        0.1497
      9 O          -0.6751   -1.4407    0.6060 O.3     1  UNL1       -0.4523
     10 C           0.2417   -0.4731    0.2469 C.ar    1  UNL1        0.1503
     11 C           1.5869   -0.8453    0.3675 C.ar    1  UNL1       -0.0096
     12 C           2.6018    0.0491    0.0188 C.ar    1  UNL1       -0.0097
     13 C           4.0027   -0.3113    0.1351 C.ar    1  UNL1        0.0409
     14 C           5.1590    0.4820    0.3154 C.ar    1  UNL1        0.0777
     15 N           6.2776   -0.2461    0.3586 N.ar    1  UNL1       -0.0862
     16 O           5.8613   -1.5577    0.2005 O.2     1  UNL1       -0.3623
     17 C           4.5114   -1.5877    0.0669 C.ar    1  UNL1        0.1319
     18 C           2.2362    1.3158   -0.4501 C.ar    1  UNL1       -0.0519
     19 C           0.8860    1.6834   -0.5646 C.ar    1  UNL1       -0.0362
     20 C          -0.1414    0.8021   -0.2075 C.ar    1  UNL1        0.0767
     21 H          -2.0446    2.5101   -1.7599 H       1  UNL1        0.0432
     22 H          -1.2713    3.2186   -0.3215 H       1  UNL1        0.0432
     23 H          -2.9139    2.7057   -0.2178 H       1  UNL1        0.0432
     24 H          -4.2596    1.1380   -0.7037 H       1  UNL1        0.0637
     25 H          -5.7853   -0.7161   -0.2846 H       1  UNL1        0.0618
     26 H          -4.9372   -2.8928    0.5509 H       1  UNL1        0.0619
     27 H          -2.5058   -3.1888    0.9576 H       1  UNL1        0.0655
     28 H           1.8146   -1.8383    0.7452 H       1  UNL1        0.0661
     29 H           5.2384    1.5545    0.4224 H       1  UNL1        0.0870
     30 H           4.0867   -2.5707   -0.0733 H       1  UNL1        0.1064
     31 H           2.9916    2.0384   -0.7517 H       1  UNL1        0.0624
     32 H           0.6724    2.6727   -0.9560 H       1  UNL1        0.0637
@<TRIPOS>BOND
     1     1     2    1
     2     2     3    1
     3     3     4   ar
     4     4     5   ar
     5     5     6   ar
     6     6     7   ar
     7     7     8   ar
     8     8     9    1
     9     9    10    1
    10    10    11   ar
    11    11    12   ar
    12    12    13    1
    13    13    14   ar
    14    14    15   ar
    15    15    16   ar
    16    16    17   ar
    17    12    18   ar
    18    18    19   ar
    19    19    20   ar
    20    20     2    1
    21     8     3   ar
    22    20    10   ar
    23    17    13   ar
    24     1    21    1
    25     1    22    1
    26     1    23    1
    27     4    24    1
    28     5    25    1
    29     6    26    1
    30     7    27    1
    31    11    28    1
    32    14    29    1
    33    17    30    1
    34    18    31    1
    35    19    32    1
