@<TRIPOS>MOLECULE
*****
 32 35 0 0 0
SMALL
GASTEIGER

@<TRIPOS>ATOM
      1 C          -1.8204   -2.5593   -0.7439 C.3     1  UNL1        0.0060
      2 N          -1.4753   -1.1809   -0.4141 N.pl3   1  UNL1       -0.2975
      3 C          -2.4947   -0.2330   -0.2033 C.ar    1  UNL1        0.0766
      4 C          -3.8664   -0.5262   -0.1999 C.ar    1  UNL1       -0.0368
      5 C          -4.8241    0.4756    0.0075 C.ar    1  UNL1       -0.0598
      6 C          -4.4296    1.7929    0.2212 C.ar    1  UNL1       -0.0582
      7 C          -3.0754    2.1089    0.2370 C.ar    1  UNL1       -0.0175
      8 C          -2.1232    1.1048    0.0346 C.ar    1  UNL1        0.1497
      9 O          -0.8063    1.5132    0.0835 O.3     1  UNL1       -0.4523
     10 C           0.1660    0.5348    0.0363 C.ar    1  UNL1        0.1504
     11 C           1.4785    0.9774    0.2399 C.ar    1  UNL1       -0.0083
     12 C           2.5457    0.0746    0.2239 C.ar    1  UNL1        0.0045
     13 C           3.9056    0.5648    0.4398 C.ar    1  UNL1        0.0782
     14 C           5.0555   -0.1242    0.0979 C.ar    1  UNL1        0.0031
     15 S           6.4464    0.7947    0.5101 S.2     1  UNL1       -0.0833
     16 C           5.4234    2.0364    1.0966 C.ar    1  UNL1        0.0654
     17 N           4.1319    1.8134    1.0061 N.ar    1  UNL1       -0.2474
     18 C           2.2598   -1.2797    0.0155 C.ar    1  UNL1       -0.0506
     19 C           0.9412   -1.7176   -0.1922 C.ar    1  UNL1       -0.0361
     20 C          -0.1330   -0.8192   -0.2011 C.ar    1  UNL1        0.0767
     21 H          -1.9773   -3.1443    0.1686 H       1  UNL1        0.0432
     22 H          -2.7203   -2.6259   -1.3647 H       1  UNL1        0.0432
     23 H          -1.0493   -3.0494   -1.3477 H       1  UNL1        0.0432
     24 H          -4.2297   -1.5380   -0.3441 H       1  UNL1        0.0637
     25 H          -5.8811    0.2208    0.0043 H       1  UNL1        0.0618
     26 H          -5.1730    2.5689    0.3815 H       1  UNL1        0.0619
     27 H          -2.7544    3.1318    0.4116 H       1  UNL1        0.0655
     28 H           1.6574    2.0363    0.4140 H       1  UNL1        0.0661
     29 H           5.1631   -1.0917   -0.3687 H       1  UNL1        0.0715
     30 H           5.8232    2.9508    1.5149 H       1  UNL1        0.0907
     31 H           3.0480   -2.0277    0.0255 H       1  UNL1        0.0625
     32 H           0.7878   -2.7830   -0.3283 H       1  UNL1        0.0637
@<TRIPOS>BOND
     1     1     2    1
     2     2     3    1
     3     3     4   ar
     4     4     5   ar
     5     5     6   ar
     6     6     7   ar
     7     7     8   ar
     8     8     9    1
     9     9    10    1
    10    10    11   ar
    11    11    12   ar
    12    12    13    1
    13    13    14   ar
    14    14    15   ar
    15    15    16   ar
    16    16    17   ar
    17    12    18   ar
    18    18    19   ar
    19    19    20   ar
    20    20     2    1
    21     8     3   ar
    22    20    10   ar
    23    17    13   ar
    24     1    21    1
    25     1    22    1
    26     1    23    1
    27     4    24    1
    28     5    25    1
    29     6    26    1
    30     7    27    1
    31    11    28    1
    32    14    29    1
    33    16    30    1
    34    18    31    1
    35    19    32    1
