@<TRIPOS>MOLECULE
*****
 38 42 0 0 0
SMALL
GASTEIGER

@<TRIPOS>ATOM
      1 C          -3.5108   -2.1609    1.5781 C.3     1  UNL1        0.0060
      2 N          -2.9816   -1.0575    0.7835 N.pl3   1  UNL1       -0.2975
      3 C          -3.8581   -0.1020    0.2357 C.ar    1  UNL1        0.0766
      4 C          -5.2416   -0.0671    0.4643 C.ar    1  UNL1       -0.0368
      5 C          -6.0522    0.9116   -0.1263 C.ar    1  UNL1       -0.0598
      6 C          -5.4950    1.8806   -0.9552 C.ar    1  UNL1       -0.0582
      7 C          -4.1239    1.8779   -1.1874 C.ar    1  UNL1       -0.0175
      8 C          -3.3182    0.9022   -0.5916 C.ar    1  UNL1        0.1497
      9 O          -1.9696    0.9915   -0.8689 O.3     1  UNL1       -0.4523
     10 C          -1.1215    0.1422   -0.1872 C.ar    1  UNL1        0.1505
     11 C           0.2460    0.3702   -0.3864 C.ar    1  UNL1       -0.0052
     12 C           1.1976   -0.4188    0.2652 C.ar    1  UNL1        0.0405
     13 C           2.6325   -0.2127    0.0874 C.ar    1  UNL1        0.2285
     14 N           3.6388   -0.8720    0.6368 N.ar    1  UNL1       -0.2089
     15 C           4.7517   -0.2598    0.1192 C.ar    1  UNL1        0.1099
     16 C           6.1163   -0.5041    0.3193 C.ar    1  UNL1       -0.0326
     17 C           7.0396    0.3042   -0.3621 C.ar    1  UNL1       -0.0595
     18 C           6.6129    1.3275   -1.2189 C.ar    1  UNL1       -0.0582
     19 C           5.2521    1.5833   -1.4285 C.ar    1  UNL1       -0.0171
     20 C           4.3721    0.7611   -0.7357 C.ar    1  UNL1        0.1557
     21 O           3.0097    0.7986   -0.7622 O.2     1  UNL1       -0.4353
     22 C           0.7422   -1.4321    1.1181 C.ar    1  UNL1       -0.0475
     23 C          -0.6290   -1.6599    1.3103 C.ar    1  UNL1       -0.0360
     24 C          -1.5920   -0.8854    0.6522 C.ar    1  UNL1        0.0767
     25 H          -4.4860   -2.5041    1.2164 H       1  UNL1        0.0432
     26 H          -3.6082   -1.8652    2.6281 H       1  UNL1        0.0432
     27 H          -2.8814   -3.0553    1.5212 H       1  UNL1        0.0432
     28 H          -5.7265   -0.7871    1.1148 H       1  UNL1        0.0637
     29 H          -7.1222    0.9147    0.0672 H       1  UNL1        0.0618
     30 H          -6.1249    2.6383   -1.4130 H       1  UNL1        0.0619
     31 H          -3.6763    2.6342   -1.8257 H       1  UNL1        0.0655
     32 H           0.5514    1.1739   -1.0519 H       1  UNL1        0.0662
     33 H           6.4425   -1.2968    0.9830 H       1  UNL1        0.0640
     34 H           8.1049    0.1313   -0.2209 H       1  UNL1        0.0618
     35 H           7.3542    1.9371   -1.7329 H       1  UNL1        0.0619
     36 H           4.9028    2.3688   -2.0863 H       1  UNL1        0.0655
     37 H           1.4601   -2.0578    1.6478 H       1  UNL1        0.0626
     38 H          -0.9084   -2.4506    1.9986 H       1  UNL1        0.0637
@<TRIPOS>BOND
     1     1     2    1
     2     2     3    1
     3     3     4   ar
     4     4     5   ar
     5     5     6   ar
     6     6     7   ar
     7     7     8   ar
     8     8     9    1
     9     9    10    1
    10    10    11   ar
    11    11    12   ar
    12    12    13    1
    13    13    14   ar
    14    14    15   ar
    15    15    16   ar
    16    16    17   ar
    17    17    18   ar
    18    18    19   ar
    19    19    20   ar
    20    20    21   ar
    21    12    22   ar
    22    22    23   ar
    23    23    24   ar
    24    24     2    1
    25     8     3   ar
    26    24    10   ar
    27    21    13   ar
    28    20    15   ar
    29     1    25    1
    30     1    26    1
    31     1    27    1
    32     4    28    1
    33     5    29    1
    34     6    30    1
    35     7    31    1
    36    11    32    1
    37    16    33    1
    38    17    34    1
    39    18    35    1
    40    19    36    1
    41    22    37    1
    42    23    38    1
