@<TRIPOS>MOLECULE
*****
 35 38 0 0 0
SMALL
GASTEIGER

@<TRIPOS>ATOM
      1 C          -2.3020   -1.9339   -1.8500 C.3     1  UNL1        0.0060
      2 N          -1.9599   -0.9822   -0.7984 N.pl3   1  UNL1       -0.2975
      3 C          -2.9769   -0.4013   -0.0178 C.ar    1  UNL1        0.0766
      4 C          -4.3503   -0.5903   -0.2313 C.ar    1  UNL1       -0.0368
      5 C          -5.3052    0.0157    0.5961 C.ar    1  UNL1       -0.0598
      6 C          -4.9063    0.8287    1.6529 C.ar    1  UNL1       -0.0582
      7 C          -3.5511    1.0446    1.8783 C.ar    1  UNL1       -0.0175
      8 C          -2.6019    0.4417    1.0469 C.ar    1  UNL1        0.1497
      9 O          -1.2841    0.7269    1.3402 O.3     1  UNL1       -0.4523
     10 C          -0.3234    0.2713    0.4605 C.ar    1  UNL1        0.1504
     11 C           0.9834    0.7045    0.7162 C.ar    1  UNL1       -0.0083
     12 C           2.0472    0.3162   -0.1091 C.ar    1  UNL1        0.0053
     13 C           3.4180    0.7803    0.1745 C.ar    1  UNL1        0.0916
     14 N           3.5237    2.1263    0.3256 N.ar    1  UNL1       -0.2341
     15 C           4.7433    2.6200    0.5824 C.ar    1  UNL1        0.1166
     16 N           5.8646    1.8997    0.7105 N.ar    1  UNL1       -0.2424
     17 C           5.7207    0.5665    0.5683 C.ar    1  UNL1        0.0487
     18 C           4.5178   -0.0550    0.2993 C.ar    1  UNL1        0.0957
     19 C           4.4605   -1.4739    0.1907 C.1     1  UNL1        0.1028
     20 N           4.4439   -2.6296    0.0887 N.1     1  UNL1       -0.1908
     21 C           1.7448   -0.4943   -1.2135 C.ar    1  UNL1       -0.0505
     22 C           0.4338   -0.9320   -1.4625 C.ar    1  UNL1       -0.0361
     23 C          -0.6264   -0.5730   -0.6222 C.ar    1  UNL1        0.0767
     24 H          -1.5041   -2.6624   -2.0291 H       1  UNL1        0.0432
     25 H          -3.1670   -2.5519   -1.5863 H       1  UNL1        0.0432
     26 H          -2.5160   -1.4091   -2.7871 H       1  UNL1        0.0432
     27 H          -4.7173   -1.1995   -1.0504 H       1  UNL1        0.0637
     28 H          -6.3635   -0.1485    0.4087 H       1  UNL1        0.0618
     29 H          -5.6479    1.2974    2.2939 H       1  UNL1        0.0619
     30 H          -3.2279    1.6840    2.6947 H       1  UNL1        0.0655
     31 H           1.1634    1.3575    1.5681 H       1  UNL1        0.0661
     32 H           4.8276    3.6955    0.6964 H       1  UNL1        0.1047
     33 H           6.6406   -0.0025    0.6868 H       1  UNL1        0.0844
     34 H           2.5237   -0.7915   -1.9138 H       1  UNL1        0.0625
     35 H           0.2741   -1.5462   -2.3429 H       1  UNL1        0.0637
@<TRIPOS>BOND
     1     1     2    1
     2     2     3    1
     3     3     4   ar
     4     4     5   ar
     5     5     6   ar
     6     6     7   ar
     7     7     8   ar
     8     8     9    1
     9     9    10    1
    10    10    11   ar
    11    11    12   ar
    12    12    13    1
    13    13    14   ar
    14    14    15   ar
    15    15    16   ar
    16    16    17   ar
    17    17    18   ar
    18    18    19    1
    19    19    20    3
    20    12    21   ar
    21    21    22   ar
    22    22    23   ar
    23    23     2    1
    24     8     3   ar
    25    23    10   ar
    26    18    13   ar
    27     1    24    1
    28     1    25    1
    29     1    26    1
    30     4    27    1
    31     5    28    1
    32     6    29    1
    33     7    30    1
    34    11    31    1
    35    15    32    1
    36    17    33    1
    37    21    34    1
    38    22    35    1
