@<TRIPOS>MOLECULE
*****
 44 50 0 0 0
SMALL
GASTEIGER

@<TRIPOS>ATOM
      1 SI          4.5763   -2.3955   -1.4380 Si      1  UNL1        0.0000
      2 C           6.3043   -1.6719   -1.5189 C.2     1  UNL1        0.0000
      3 C           6.3558   -0.3759   -1.1646 C.2     1  UNL1        0.0000
      4 C           5.0491    0.1674   -0.7981 C.ar    1  UNL1        0.0000
      5 C           3.9084   -0.6993   -0.8536 C.ar    1  UNL1        0.0000
      6 C           2.5553   -0.3186   -0.5250 C.ar    1  UNL1        0.0000
      7 C           1.4657   -1.2127   -0.5964 C.ar    1  UNL1        0.0000
      8 C           0.1467   -0.8265   -0.2719 C.ar    1  UNL1        0.0000
      9 C          -0.9347   -1.6996   -0.3388 C.ar    1  UNL1        0.0000
     10 N          -2.2127   -1.3684   -0.0364 N.ar    1  UNL1        0.0000
     11 C          -2.4828   -0.1035    0.3619 C.ar    1  UNL1        0.0000
     12 C          -1.4524    0.8360    0.4558 C.ar    1  UNL1        0.0000
     13 C          -0.1284    0.4821    0.1395 C.ar    1  UNL1        0.0000
     14 C           0.9274    1.4003    0.2233 C.ar    1  UNL1        0.0000
     15 C           2.2544    1.0189   -0.1012 C.ar    1  UNL1        0.0000
     16 C           3.3983    1.8794   -0.0480 C.ar    1  UNL1        0.0000
     17 C           3.3643    3.2036    0.3282 C.ar    1  UNL1        0.0000
     18 S           4.9208    3.9301    0.2762 S.2     1  UNL1        0.0000
     19 C           5.6611    2.4748   -0.2526 C.ar    1  UNL1        0.0000
     20 C           4.7426    1.4612   -0.3857 C.ar    1  UNL1        0.0000
     21 C          -3.8888    0.2081    0.6799 C.ar    1  UNL1        0.0000
     22 C          -4.3825    1.4812    1.1175 C.ar    1  UNL1        0.0000
     23 C          -5.7571    1.7955    1.4310 C.ar    1  UNL1        0.0000
     24 C          -6.8171    0.8742    1.3469 C.ar    1  UNL1        0.0000
     25 C          -6.3383   -0.3545    0.9243 C.ar    1  UNL1        0.0000
     26 C          -7.0892   -1.4824    0.7316 C.ar    1  UNL1        0.0000
     27 O          -6.2799   -2.4987    0.3142 O.2     1  UNL1        0.0000
     28 C          -5.0054   -2.0059    0.2431 C.ar    1  UNL1        0.0000
     29 C          -4.9789   -0.6811    0.6098 C.ar    1  UNL1        0.0000
     30 H           4.4417   -3.4367   -0.3893 H       1  UNL1        0.0000
     31 H           4.0504   -2.7691   -2.7743 H       1  UNL1        0.0000
     32 H           7.1415   -2.2800   -1.8265 H       1  UNL1        0.0000
     33 H           7.2613    0.2138   -1.1481 H       1  UNL1        0.0000
     34 H           1.6252   -2.2420   -0.9107 H       1  UNL1        0.0000
     35 H          -0.8057   -2.7334   -0.6494 H       1  UNL1        0.0000
     36 H          -1.6551    1.8523    0.7736 H       1  UNL1        0.0000
     37 H           0.7188    2.4178    0.5423 H       1  UNL1        0.0000
     38 H           2.5237    3.8081    0.6354 H       1  UNL1        0.0000
     39 H           6.7267    2.4588   -0.4320 H       1  UNL1        0.0000
     40 H          -3.6851    2.3103    1.2352 H       1  UNL1        0.0000
     41 H          -5.9836    2.8130    1.7531 H       1  UNL1        0.0000
     42 H          -7.8437    1.1135    1.5824 H       1  UNL1        0.0000
     43 H          -8.1356   -1.7313    0.8336 H       1  UNL1        0.0000
     44 H          -4.2629   -2.7216   -0.0792 H       1  UNL1        0.0000
@<TRIPOS>BOND
     1     1     2    1
     2     2     3    2
     3     3     4    1
     4     4     5   ar
     5     5     6   ar
     6     6     7   ar
     7     7     8   ar
     8     8     9   ar
     9     9    10   ar
    10    10    11   ar
    11    11    12   ar
    12    12    13   ar
    13    13    14   ar
    14    14    15   ar
    15    15    16   ar
    16    16    17   ar
    17    17    18   ar
    18    18    19   ar
    19    19    20   ar
    20    11    21    1
    21    21    22   ar
    22    22    23   ar
    23    23    24   ar
    24    24    25   ar
    25    25    26   ar
    26    26    27   ar
    27    27    28   ar
    28    28    29   ar
    29     5     1    1
    30    15     6   ar
    31    20    16   ar
    32    29    21   ar
    33    20     4   ar
    34    29    25   ar
    35    13     8   ar
    36     1    30    1
    37     1    31    1
    38     2    32    1
    39     3    33    1
    40     7    34    1
    41     9    35    1
    42    12    36    1
    43    14    37    1
    44    17    38    1
    45    19    39    1
    46    22    40    1
    47    23    41    1
    48    24    42    1
    49    26    43    1
    50    28    44    1
