@<TRIPOS>MOLECULE
*****
 31 34 0 0 0
SMALL
GASTEIGER

@<TRIPOS>ATOM
      1 C          -2.0818   -2.3597    0.3102 C.3     1  UNL1        0.0060
      2 N          -1.5063   -1.0198    0.2638 N.pl3   1  UNL1       -0.2975
      3 C          -2.3498    0.1059    0.2123 C.ar    1  UNL1        0.0766
      4 C          -3.7478    0.0494    0.1112 C.ar    1  UNL1       -0.0368
      5 C          -4.5225    1.2165    0.0756 C.ar    1  UNL1       -0.0598
      6 C          -3.9146    2.4669    0.1355 C.ar    1  UNL1       -0.0582
      7 C          -2.5292    2.5521    0.2215 C.ar    1  UNL1       -0.0175
      8 C          -1.7598    1.3845    0.2515 C.ar    1  UNL1        0.1497
      9 O          -0.3947    1.5715    0.3218 O.3     1  UNL1       -0.4523
     10 C           0.4080    0.4548    0.2050 C.ar    1  UNL1        0.1504
     11 C           1.7830    0.7067    0.1294 C.ar    1  UNL1       -0.0067
     12 C           2.6884   -0.3488   -0.0063 C.ar    1  UNL1        0.0260
     13 C           4.1212   -0.0863   -0.0879 C.ar    1  UNL1        0.2019
     14 N           4.6414    1.1912   -0.0340 N.ar    1  UNL1       -0.1942
     15 C           5.9268    0.9732   -0.1389 C.ar    1  UNL1        0.2147
     16 O           6.2550   -0.3361   -0.2543 O.2     1  UNL1       -0.3411
     17 N           5.0554   -1.0451   -0.2207 N.ar    1  UNL1       -0.0564
     18 C           2.1840   -1.6537   -0.0676 C.ar    1  UNL1       -0.0490
     19 C           0.8046   -1.8997    0.0141 C.ar    1  UNL1       -0.0361
     20 C          -0.1133   -0.8525    0.1645 C.ar    1  UNL1        0.0767
     21 H          -1.4360   -3.0731    0.8333 H       1  UNL1        0.0432
     22 H          -3.0186   -2.3911    0.8767 H       1  UNL1        0.0432
     23 H          -2.2695   -2.7318   -0.7026 H       1  UNL1        0.0432
     24 H          -4.2729   -0.8974    0.0440 H       1  UNL1        0.0637
     25 H          -5.6046    1.1437   -0.0020 H       1  UNL1        0.0618
     26 H          -4.5166    3.3710    0.1085 H       1  UNL1        0.0619
     27 H          -2.0426    3.5224    0.2602 H       1  UNL1        0.0655
     28 H           2.1348    1.7351    0.1726 H       1  UNL1        0.0662
     29 H           6.7391    1.6838   -0.1453 H       1  UNL1        0.1283
     30 H           2.8587   -2.5006   -0.1829 H       1  UNL1        0.0625
     31 H           0.4803   -2.9327   -0.0575 H       1  UNL1        0.0637
@<TRIPOS>BOND
     1     1     2    1
     2     2     3    1
     3     3     4   ar
     4     4     5   ar
     5     5     6   ar
     6     6     7   ar
     7     7     8   ar
     8     8     9    1
     9     9    10    1
    10    10    11   ar
    11    11    12   ar
    12    12    13    1
    13    13    14   ar
    14    14    15   ar
    15    15    16   ar
    16    16    17   ar
    17    12    18   ar
    18    18    19   ar
    19    19    20   ar
    20    20     2    1
    21     8     3   ar
    22    20    10   ar
    23    17    13   ar
    24     1    21    1
    25     1    22    1
    26     1    23    1
    27     4    24    1
    28     5    25    1
    29     6    26    1
    30     7    27    1
    31    11    28    1
    32    15    29    1
    33    18    30    1
    34    19    31    1
