@<TRIPOS>MOLECULE
*****
 44 48 0 0 0
SMALL
GASTEIGER

@<TRIPOS>ATOM
      1 C          -2.8418   -0.2101   -3.4940 C.3     1  UNL1        0.0058
      2 N          -3.0084   -0.1690   -2.0383 N.pl3   1  UNL1       -0.3014
      3 C          -4.3314   -0.1303   -1.5315 C.ar    1  UNL1        0.0476
      4 C          -5.4301   -0.5866   -2.2902 C.ar    1  UNL1       -0.0393
      5 C          -6.7373   -0.5616   -1.7924 C.ar    1  UNL1       -0.0599
      6 C          -6.9830   -0.0844   -0.5133 C.ar    1  UNL1       -0.0606
      7 C          -5.9190    0.3580    0.2670 C.ar    1  UNL1       -0.0462
      8 C          -4.6026    0.3301   -0.2268 C.ar    1  UNL1        0.0341
      9 S          -3.3306    0.9423    0.8618 S.3     1  UNL1       -0.0857
     10 C          -1.8556    0.3061    0.0866 C.ar    1  UNL1        0.0346
     11 C          -0.6843    0.3136    0.8678 C.ar    1  UNL1       -0.0390
     12 C           0.5307   -0.1424    0.3522 C.ar    1  UNL1       -0.0238
     13 C           1.7615   -0.1727    1.1501 C.2     1  UNL1       -0.0540
     14 C           2.1695    0.8433    1.9291 C.2     1  UNL1       -0.0529
     15 C           3.3668    0.8610    2.7223 C.ar    1  UNL1       -0.0097
     16 C           3.3814    1.4049    4.0474 C.ar    1  UNL1       -0.0469
     17 C           4.6156    1.3018    4.6461 C.ar    1  UNL1       -0.0231
     18 S           5.7623    0.5685    3.6189 S.2     1  UNL1       -0.0955
     19 C           4.6209    0.4034    2.3391 C.ar    1  UNL1        0.0330
     20 C           5.0624   -0.1391    1.0779 C.ar    1  UNL1        0.0264
     21 C           5.6167   -1.3851    0.8522 C.ar    1  UNL1       -0.0464
     22 C           5.9487   -1.5941   -0.5187 C.ar    1  UNL1       -0.0541
     23 C           5.6477   -0.4967   -1.2934 C.ar    1  UNL1       -0.0237
     24 S           4.9731    0.7753   -0.3706 S.2     1  UNL1       -0.0961
     25 C           0.5566   -0.6355   -0.9501 C.ar    1  UNL1       -0.0528
     26 C          -0.6050   -0.6388   -1.7323 C.ar    1  UNL1       -0.0387
     27 C          -1.8350   -0.1544   -1.2447 C.ar    1  UNL1        0.0477
     28 H          -3.6454    0.3229   -4.0165 H       1  UNL1        0.0432
     29 H          -2.8146   -1.2457   -3.8502 H       1  UNL1        0.0432
     30 H          -1.9271    0.2998   -3.8196 H       1  UNL1        0.0432
     31 H          -5.2884   -1.0015   -3.2841 H       1  UNL1        0.0636
     32 H          -7.5583   -0.9236   -2.4060 H       1  UNL1        0.0618
     33 H          -7.9955   -0.0617   -0.1199 H       1  UNL1        0.0618
     34 H          -6.1203    0.7268    1.2705 H       1  UNL1        0.0629
     35 H          -0.7323    0.6707    1.8945 H       1  UNL1        0.0635
     36 H           2.3546   -1.0791    1.0592 H       1  UNL1        0.0624
     37 H           1.5431    1.7309    2.0042 H       1  UNL1        0.0624
     38 H           2.5211    1.8345    4.5470 H       1  UNL1        0.0629
     39 H           4.8979    1.6196    5.6403 H       1  UNL1        0.0694
     40 H           5.7730   -2.1178    1.6351 H       1  UNL1        0.0629
     41 H           6.3902   -2.5010   -0.9132 H       1  UNL1        0.0623
     42 H           5.7965   -0.3748   -2.3574 H       1  UNL1        0.0693
     43 H           1.4817   -1.0197   -1.3756 H       1  UNL1        0.0624
     44 H          -0.5259   -1.0592   -2.7308 H       1  UNL1        0.0637
@<TRIPOS>BOND
     1     1     2    1
     2     2     3    1
     3     3     4   ar
     4     4     5   ar
     5     5     6   ar
     6     6     7   ar
     7     7     8   ar
     8     8     9    1
     9     9    10    1
    10    10    11   ar
    11    11    12   ar
    12    12    13    1
    13    13    14    2
    14    14    15    1
    15    15    16   ar
    16    16    17   ar
    17    17    18   ar
    18    18    19   ar
    19    19    20    1
    20    20    21   ar
    21    21    22   ar
    22    22    23   ar
    23    23    24   ar
    24    12    25   ar
    25    25    26   ar
    26    26    27   ar
    27    27     2    1
    28     8     3   ar
    29    27    10   ar
    30    19    15   ar
    31    24    20   ar
    32     1    28    1
    33     1    29    1
    34     1    30    1
    35     4    31    1
    36     5    32    1
    37     6    33    1
    38     7    34    1
    39    11    35    1
    40    13    36    1
    41    14    37    1
    42    16    38    1
    43    17    39    1
    44    21    40    1
    45    22    41    1
    46    23    42    1
    47    25    43    1
    48    26    44    1
