@<TRIPOS>MOLECULE
*****
 44 50 0 0 0
SMALL
GASTEIGER

@<TRIPOS>ATOM
      1 C           6.9840   -1.8698    0.6210 C.3     1  UNL1        0.0125
      2 N           6.3410   -0.6015    0.3967 N.ar    1  UNL1       -0.3420
      3 C           6.9754    0.6129    0.3630 C.ar    1  UNL1        0.0575
      4 C           8.2348    1.2591    0.4838 C.ar    1  UNL1       -0.0305
      5 C           8.0670    2.6329    0.3115 C.ar    1  UNL1       -0.0217
      6 S           6.4247    3.1319    0.0098 S.2     1  UNL1       -0.0940
      7 C           6.0008    1.5186    0.1200 C.ar    1  UNL1        0.0513
      8 C           4.8157    0.8834    0.0107 C.ar    1  UNL1        0.0519
      9 S           3.2715    1.4358   -0.2802 S.2     1  UNL1       -0.0850
     10 C           2.7297   -0.2256   -0.1911 C.ar    1  UNL1        0.0285
     11 C           1.3378   -0.5767   -0.3918 C.ar    1  UNL1        0.0266
     12 C           0.8585   -1.7407   -0.9724 C.ar    1  UNL1       -0.0458
     13 C          -0.5651   -1.7872   -1.0182 C.ar    1  UNL1       -0.0463
     14 C          -1.1496   -0.6714   -0.4486 C.ar    1  UNL1        0.0220
     15 C          -2.5670   -0.3500   -0.3058 C.ar    1  UNL1        0.0169
     16 C          -3.1504    0.0556    0.9188 C.ar    1  UNL1       -0.0508
     17 C          -4.5280    0.3429    1.0623 C.ar    1  UNL1       -0.0508
     18 C          -5.4558    0.2533   -0.0037 C.ar    1  UNL1        0.0169
     19 C          -6.8759    0.5605    0.1465 C.ar    1  UNL1        0.0214
     20 C          -7.6716    1.3985   -0.6169 C.ar    1  UNL1       -0.0469
     21 C          -9.0228    1.4361   -0.1590 C.ar    1  UNL1       -0.0541
     22 C          -9.2228    0.6193    0.9368 C.ar    1  UNL1       -0.0237
     23 S          -7.7867   -0.1790    1.4091 S.2     1  UNL1       -0.0966
     24 C          -4.9310   -0.1477   -1.2677 C.ar    1  UNL1        0.1087
     25 N          -5.6136   -0.3133   -2.4148 N.ar    1  UNL1       -0.1901
     26 S          -4.5218   -0.7737   -3.5745 S.2     1  UNL1        0.1165
     27 N          -3.1292   -0.8174   -2.6778 N.ar    1  UNL1       -0.1901
     28 C          -3.4502   -0.4583   -1.4224 C.ar    1  UNL1        0.1087
     29 S           0.0422    0.4184    0.1341 S.2     1  UNL1       -0.0877
     30 C           3.7656   -1.1346    0.0496 C.ar    1  UNL1       -0.0222
     31 C           4.9990   -0.4427    0.1732 C.ar    1  UNL1        0.0581
     32 H           7.0106   -2.4150   -0.3284 H       1  UNL1        0.0456
     33 H           8.0011   -1.7098    0.9891 H       1  UNL1        0.0456
     34 H           6.4120   -2.4316    1.3676 H       1  UNL1        0.0456
     35 H           9.1849    0.7811    0.6792 H       1  UNL1        0.0644
     36 H           8.8344    3.4002    0.3480 H       1  UNL1        0.0694
     37 H           1.4975   -2.5223   -1.3672 H       1  UNL1        0.0629
     38 H          -1.1331   -2.6065   -1.4426 H       1  UNL1        0.0629
     39 H          -2.5186    0.1462    1.8081 H       1  UNL1        0.0625
     40 H          -4.8784    0.6560    2.0496 H       1  UNL1        0.0625
     41 H          -7.3007    1.9616   -1.4705 H       1  UNL1        0.0629
     42 H          -9.8073    2.0280   -0.6149 H       1  UNL1        0.0623
     43 H         -10.1434    0.4514    1.4849 H       1  UNL1        0.0693
     44 H           3.6349   -2.2089    0.1315 H       1  UNL1        0.0650
@<TRIPOS>BOND
     1     1     2    1
     2     2     3   ar
     3     3     4   ar
     4     4     5   ar
     5     5     6   ar
     6     6     7   ar
     7     7     8   ar
     8     8     9   ar
     9     9    10   ar
    10    10    11    1
    11    11    12   ar
    12    12    13   ar
    13    13    14   ar
    14    14    15    1
    15    15    16   ar
    16    16    17   ar
    17    17    18   ar
    18    18    19    1
    19    19    20   ar
    20    20    21   ar
    21    21    22   ar
    22    22    23   ar
    23    18    24   ar
    24    24    25   ar
    25    25    26   ar
    26    26    27   ar
    27    27    28   ar
    28    14    29   ar
    29    10    30   ar
    30    30    31   ar
    31    31     2   ar
    32     7     3   ar
    33    31     8   ar
    34    29    11   ar
    35    28    15   ar
    36    23    19   ar
    37    28    24   ar
    38     1    32    1
    39     1    33    1
    40     1    34    1
    41     4    35    1
    42     5    36    1
    43    12    37    1
    44    13    38    1
    45    16    39    1
    46    17    40    1
    47    20    41    1
    48    21    42    1
    49    22    43    1
    50    30    44    1
