@<TRIPOS>MOLECULE
*****
 34 36 0 0 0
SMALL
GASTEIGER

@<TRIPOS>ATOM
      1 C           6.2377    1.9254    0.2518 C.3     1  UNL1        0.0302
      2 N           5.3173    0.8155    0.2925 N.ar    1  UNL1       -0.2742
      3 C           4.2037    0.6410   -0.4744 C.ar    1  UNL1        0.0298
      4 C           3.6494   -0.5649   -0.0899 C.ar    1  UNL1        0.0071
      5 C           2.4310   -1.2292   -0.6104 C.3     1  UNL1        0.0412
      6 N           1.2785   -0.4910   -0.1470 N.am    1  UNL1       -0.2949
      7 C           0.0261   -0.8777   -0.5782 C.2     1  UNL1        0.3041
      8 O          -0.1371   -1.7789   -1.3888 O.2     1  UNL1       -0.2525
      9 N          -0.9485   -0.1057    0.0140 N.am    1  UNL1       -0.2694
     10 C          -2.3464   -0.2375   -0.1084 C.ar    1  UNL1        0.0385
     11 C          -2.9726   -1.3182   -0.7596 C.ar    1  UNL1       -0.0367
     12 C          -4.3692   -1.4008   -0.8420 C.ar    1  UNL1       -0.0144
     13 C          -5.1082   -0.3949   -0.2632 C.ar    1  UNL1        0.1663
     14 C          -4.5062    0.6593    0.3782 C.ar    1  UNL1        0.1680
     15 C          -3.1337    0.7665    0.4747 C.ar    1  UNL1        0.0051
     16 O          -5.4085    1.5430    0.8838 O.3     1  UNL1       -0.4525
     17 C          -6.6486    0.9228    0.4819 C.3     1  UNL1        0.2332
     18 O          -6.4643   -0.3100   -0.2438 O.3     1  UNL1       -0.4526
     19 C           4.5205   -1.0306    0.9213 C.ar    1  UNL1        0.0540
     20 N           5.5265   -0.1876    1.1631 N.ar    1  UNL1       -0.1796
     21 H           7.2303    1.5412    0.0039 H       1  UNL1        0.0473
     22 H           6.2442    2.4040    1.2342 H       1  UNL1        0.0473
     23 H           5.9132    2.6394   -0.5092 H       1  UNL1        0.0473
     24 H           3.8995    1.3650   -1.2178 H       1  UNL1        0.0829
     25 H           2.3512   -2.2604   -0.2483 H       1  UNL1        0.0513
     26 H           2.4298   -1.2503   -1.7059 H       1  UNL1        0.0513
     27 H           1.3225   -0.1683    0.8077 H       1  UNL1        0.1506
     28 H          -0.6119    0.7263    0.4754 H       1  UNL1        0.1564
     29 H          -2.3928   -2.1181   -1.2113 H       1  UNL1        0.0637
     30 H          -4.8501   -2.2321   -1.3451 H       1  UNL1        0.0656
     31 H          -2.6975    1.6141    0.9902 H       1  UNL1        0.0674
     32 H          -7.2017    1.6246   -0.1529 H       1  UNL1        0.1166
     33 H          -7.2435    0.7162    1.3791 H       1  UNL1        0.1166
     34 H           4.4594   -1.9480    1.4937 H       1  UNL1        0.0851
@<TRIPOS>BOND
     1     1     2    1
     2     2     3   ar
     3     3     4   ar
     4     4     5    1
     5     5     6    1
     6     6     7   am
     7     7     8    2
     8     7     9   am
     9     9    10    1
    10    10    11   ar
    11    11    12   ar
    12    12    13   ar
    13    13    14   ar
    14    14    15   ar
    15    14    16    1
    16    16    17    1
    17    17    18    1
    18     4    19   ar
    19    19    20   ar
    20    20     2   ar
    21    15    10   ar
    22    18    13    1
    23     1    21    1
    24     1    22    1
    25     1    23    1
    26     3    24    1
    27     5    25    1
    28     5    26    1
    29     6    27    1
    30     9    28    1
    31    11    29    1
    32    12    30    1
    33    15    31    1
    34    17    32    1
    35    17    33    1
    36    19    34    1
