@<TRIPOS>MOLECULE
*****
 40 43 0 0 0
SMALL
GASTEIGER

@<TRIPOS>ATOM
      1 C          -1.2496   -4.6869   -0.0023 C.3     1  UNL1        0.0039
      2 N          -0.8105   -3.3152   -0.0071 N.am    1  UNL1       -0.2950
      3 C          -1.7724   -2.1935   -0.1126 C.3     1  UNL1        0.0425
      4 C          -0.8325   -1.0568   -0.0662 C.ar    1  UNL1        0.0084
      5 C           0.4555   -1.5011    0.0536 C.ar    1  UNL1        0.1144
      6 N           1.3124   -0.4535    0.1009 N.ar    1  UNL1       -0.3106
      7 C           2.6998   -0.4502    0.2189 C.ar    1  UNL1        0.0210
      8 C           3.3622    0.7221    0.2368 C.ar    1  UNL1        0.0336
      9 C           4.8570    0.7978    0.3629 C.2     1  UNL1        0.1615
     10 C           5.6565   -0.4794    0.4257 C.3     1  UNL1       -0.0014
     11 O           5.4197    1.8927    0.4150 O.2     1  UNL1       -0.2923
     12 C           2.5810    1.9549    0.1207 C.ar    1  UNL1       -0.0479
     13 C           1.2391    1.9504    0.0080 C.ar    1  UNL1       -0.0365
     14 C           0.5321    0.7103    0.0044 C.ar    1  UNL1        0.0548
     15 C          -0.8133    0.3466   -0.0870 C.ar    1  UNL1        0.0128
     16 C          -1.9208    1.2743   -0.1972 C.ar    1  UNL1       -0.0153
     17 C          -2.7861    1.2016   -1.2953 C.ar    1  UNL1       -0.0505
     18 C          -3.8663    2.0805   -1.3962 C.ar    1  UNL1       -0.0196
     19 C          -4.0815    3.0251   -0.3993 C.ar    1  UNL1        0.1169
     20 O          -5.1486    3.8618   -0.5389 O.3     1  UNL1       -0.5068
     21 C          -3.2346    3.1079    0.7014 C.ar    1  UNL1       -0.0196
     22 C          -2.1534    2.2284    0.8023 C.ar    1  UNL1       -0.0505
     23 C           0.5265   -2.9197    0.0957 C.2     1  UNL1        0.2638
     24 O           1.5182   -3.6203    0.1982 O.2     1  UNL1       -0.2684
     25 H          -1.9188   -4.8395    0.8487 H       1  UNL1        0.0429
     26 H          -0.3973   -5.3661    0.0796 H       1  UNL1        0.0429
     27 H          -1.7869   -4.8881   -0.9328 H       1  UNL1        0.0429
     28 H          -2.3083   -2.2674   -1.0620 H       1  UNL1        0.0515
     29 H          -2.4527   -2.2204    0.7421 H       1  UNL1        0.0515
     30 H           3.1684   -1.4237    0.2918 H       1  UNL1        0.0820
     31 H           6.7220   -0.2354    0.4821 H       1  UNL1        0.0309
     32 H           5.4928   -1.0731   -0.4774 H       1  UNL1        0.0309
     33 H           5.3889   -1.0481    1.3200 H       1  UNL1        0.0309
     34 H           3.1245    2.8971    0.1203 H       1  UNL1        0.0626
     35 H           0.6920    2.8833   -0.0886 H       1  UNL1        0.0639
     36 H          -2.6191    0.4731   -2.0847 H       1  UNL1        0.0625
     37 H          -4.5349    2.0307   -2.2509 H       1  UNL1        0.0654
     38 H          -5.1650    4.4739    0.2151 H       1  UNL1        0.2921
     39 H          -3.3983    3.8398    1.4858 H       1  UNL1        0.0654
     40 H          -1.4982    2.2862    1.6687 H       1  UNL1        0.0625
@<TRIPOS>BOND
     1     1     2    1
     2     2     3    1
     3     3     4    1
     4     4     5   ar
     5     5     6   ar
     6     6     7   ar
     7     7     8   ar
     8     8     9    1
     9     9    10    1
    10     9    11    2
    11     8    12   ar
    12    12    13   ar
    13    13    14   ar
    14    14    15   ar
    15    15    16    1
    16    16    17   ar
    17    17    18   ar
    18    18    19   ar
    19    19    20    1
    20    19    21   ar
    21    21    22   ar
    22     5    23    1
    23    23    24    2
    24    23     2   am
    25    15     4   ar
    26    14     6   ar
    27    22    16   ar
    28     1    25    1
    29     1    26    1
    30     1    27    1
    31     3    28    1
    32     3    29    1
    33     7    30    1
    34    10    31    1
    35    10    32    1
    36    10    33    1
    37    12    34    1
    38    13    35    1
    39    17    36    1
    40    18    37    1
    41    20    38    1
    42    21    39    1
    43    22    40    1
