@<TRIPOS>MOLECULE
*****
 35 39 0 0 0
SMALL
GASTEIGER

@<TRIPOS>ATOM
      1 C           3.5587    0.5194   -2.2753 C.3     1  UNL1        0.0119
      2 N           3.7254   -0.4771   -1.2393 N.ar    1  UNL1       -0.3493
      3 C           4.8207   -1.2988   -1.1320 C.ar    1  UNL1        0.0048
      4 C           4.6171   -2.1459   -0.0665 C.ar    1  UNL1       -0.0436
      5 C           3.3575   -1.8229    0.4907 C.ar    1  UNL1       -0.0357
      6 C           2.8245   -0.7769   -0.2408 C.ar    1  UNL1        0.0566
      7 C           1.5753   -0.1126   -0.0455 C.ar    1  UNL1        0.0505
      8 S           0.0652   -0.8535   -0.3896 S.2     1  UNL1       -0.0845
      9 C          -0.8482    0.5359    0.0818 C.ar    1  UNL1        0.0351
     10 C          -2.2821    0.5594   -0.0010 C.ar    1  UNL1        0.0305
     11 S          -3.1354    1.9222   -0.6557 S.2     1  UNL1       -0.0952
     12 C          -4.6854    1.2017   -0.4144 C.ar    1  UNL1       -0.0163
     13 C          -4.5252   -0.0311    0.1371 C.ar    1  UNL1       -0.0142
     14 C          -5.3866   -1.0722    0.5609 C.2     1  UNL1       -0.0574
     15 C          -4.6435   -2.0904    1.0506 C.2     1  UNL1       -0.0791
     16 C          -3.1453   -1.7748    0.9745 C.3     1  UNL1       -0.0075
     17 C          -3.1817   -0.4109    0.3674 C.ar    1  UNL1       -0.0212
     18 C           0.0348    1.4808    0.4985 C.ar    1  UNL1        0.0051
     19 C          -0.0923    2.7930    1.0343 C.ar    1  UNL1       -0.0458
     20 C           1.1408    3.3779    1.3405 C.ar    1  UNL1       -0.0231
     21 S           2.5645    2.4024    1.0237 S.2     1  UNL1       -0.0954
     22 C           1.3925    1.1505    0.4466 C.ar    1  UNL1        0.0361
     23 H           2.5326    0.4829   -2.6490 H       1  UNL1        0.0456
     24 H           3.7850    1.4992   -1.8496 H       1  UNL1        0.0456
     25 H           4.2469    0.3036   -3.0971 H       1  UNL1        0.0456
     26 H           5.6513   -1.2194   -1.8213 H       1  UNL1        0.0809
     27 H           5.3005   -2.9137    0.2718 H       1  UNL1        0.0633
     28 H           2.8897   -2.2970    1.3441 H       1  UNL1        0.0639
     29 H          -5.5915    1.7226   -0.6888 H       1  UNL1        0.0699
     30 H          -6.4654   -1.0468    0.5004 H       1  UNL1        0.0621
     31 H          -5.0363   -3.0155    1.4455 H       1  UNL1        0.0575
     32 H          -2.6993   -1.7647    1.9728 H       1  UNL1        0.0356
     33 H          -2.6365   -2.4981    0.3317 H       1  UNL1        0.0356
     34 H          -1.0300    3.3075    1.2055 H       1  UNL1        0.0629
     35 H           1.3018    4.3631    1.7569 H       1  UNL1        0.0694
@<TRIPOS>BOND
     1     1     2    1
     2     2     3   ar
     3     3     4   ar
     4     4     5   ar
     5     5     6   ar
     6     6     7    1
     7     7     8   ar
     8     8     9   ar
     9     9    10    1
    10    10    11   ar
    11    11    12   ar
    12    12    13   ar
    13    13    14    1
    14    14    15    2
    15    15    16    1
    16    16    17    1
    17     9    18   ar
    18    18    19   ar
    19    19    20   ar
    20    20    21   ar
    21    21    22   ar
    22     6     2   ar
    23    22     7   ar
    24    17    10   ar
    25    22    18   ar
    26    17    13   ar
    27     1    23    1
    28     1    24    1
    29     1    25    1
    30     3    26    1
    31     4    27    1
    32     5    28    1
    33    12    29    1
    34    14    30    1
    35    15    31    1
    36    16    32    1
    37    16    33    1
    38    19    34    1
    39    20    35    1
