@<TRIPOS>MOLECULE
*****
 31 32 0 0 0
SMALL
GASTEIGER

@<TRIPOS>ATOM
      1 C          -4.1798   -0.6352   -0.8905 C.3     1  UNL1       -0.0126
      2 N          -2.9219    0.0881   -0.7249 N.3     1  UNL1       -0.3024
      3 C          -2.7125    0.5154    0.6751 C.3     1  UNL1        0.0145
      4 C          -1.6059   -0.2356    1.4389 C.3     1  UNL1        0.0278
      5 N          -0.3333   -0.2257    0.7164 N.am    1  UNL1       -0.2951
      6 C           0.8476   -0.2561    1.4422 C.2     1  UNL1        0.2481
      7 O           0.9088   -0.3045    2.6666 O.2     1  UNL1       -0.2699
      8 C           2.1162   -0.1741    0.7032 C.ar    1  UNL1        0.0565
      9 C           2.6089    1.0999    0.3949 C.ar    1  UNL1       -0.0299
     10 C           3.8200    1.2144   -0.2811 C.ar    1  UNL1        0.0418
     11 CL          4.4331    2.7713   -0.6765 Cl      1  UNL1       -0.0835
     12 C           4.5404    0.0750   -0.6420 C.ar    1  UNL1       -0.0420
     13 C           4.0472   -1.1941   -0.3226 C.ar    1  UNL1       -0.0413
     14 C           2.8323   -1.3234    0.3558 C.ar    1  UNL1        0.0532
     15 CL          2.2563   -2.9115    0.7040 Cl      1  UNL1       -0.0828
     16 C          -0.4238   -0.2051   -0.7489 C.3     1  UNL1        0.0278
     17 C          -1.7920   -0.7027   -1.2488 C.3     1  UNL1        0.0145
     18 H          -5.0273   -0.0019   -0.6059 H       1  UNL1        0.0391
     19 H          -4.2122   -1.5488   -0.2861 H       1  UNL1        0.0391
     20 H          -4.3321   -0.9090   -1.9405 H       1  UNL1        0.0391
     21 H          -3.6438    0.4764    1.2538 H       1  UNL1        0.0442
     22 H          -2.4311    1.5758    0.6363 H       1  UNL1        0.0442
     23 H          -1.4765    0.2073    2.4325 H       1  UNL1        0.0477
     24 H          -1.8888   -1.2856    1.5810 H       1  UNL1        0.0477
     25 H           2.0521    1.9858    0.6899 H       1  UNL1        0.0640
     26 H           5.4881    0.1674   -1.1680 H       1  UNL1        0.0633
     27 H           4.6171   -2.0767   -0.6043 H       1  UNL1        0.0633
     28 H           0.3693   -0.8245   -1.1781 H       1  UNL1        0.0477
     29 H          -0.2527    0.8290   -1.0712 H       1  UNL1        0.0477
     30 H          -1.8965   -1.7568   -0.9572 H       1  UNL1        0.0442
     31 H          -1.8074   -0.6651   -2.3441 H       1  UNL1        0.0442
@<TRIPOS>BOND
     1     1     2    1
     2     2     3    1
     3     3     4    1
     4     4     5    1
     5     5     6   am
     6     6     7    2
     7     6     8    1
     8     8     9   ar
     9     9    10   ar
    10    10    11    1
    11    10    12   ar
    12    12    13   ar
    13    13    14   ar
    14    14    15    1
    15     5    16    1
    16    16    17    1
    17    17     2    1
    18    14     8   ar
    19     1    18    1
    20     1    19    1
    21     1    20    1
    22     3    21    1
    23     3    22    1
    24     4    23    1
    25     4    24    1
    26     9    25    1
    27    12    26    1
    28    13    27    1
    29    16    28    1
    30    16    29    1
    31    17    30    1
    32    17    31    1
