@<TRIPOS>MOLECULE
*****
 29 30 0 0 0
SMALL
GASTEIGER

@<TRIPOS>ATOM
      1 C          -3.8044    1.2903    0.4176 C.3     1  UNL1       -0.0127
      2 N          -2.4899    0.6902    0.5992 N.3     1  UNL1       -0.3029
      3 C          -2.5270   -0.7711    0.5112 C.3     1  UNL1        0.0114
      4 C          -1.1440   -1.4200    0.7904 C.3     1  UNL1        0.0120
      5 N           0.0285   -0.5814    0.4671 N.3     1  UNL1       -0.2952
      6 C           1.2177   -1.4086    0.2398 C.3     1  UNL1        0.0304
      7 C           2.4928   -0.6098    0.2247 C.ar    1  UNL1        0.0049
      8 C           3.2863   -0.2782   -0.8602 C.ar    1  UNL1       -0.0492
      9 C           4.4293    0.4892   -0.4845 C.ar    1  UNL1       -0.0403
     10 C           4.4596    0.7009    0.8699 C.ar    1  UNL1        0.0552
     11 BR          5.8395    1.6868    1.7514 Br      1  UNL1       -0.0426
     12 S           3.1559   -0.0015    1.6893 S.2     1  UNL1       -0.0851
     13 C          -0.2831    0.3267   -0.6426 C.3     1  UNL1        0.0120
     14 C          -1.5010    1.2452   -0.3436 C.3     1  UNL1        0.0114
     15 H          -4.5011    0.9291    1.1821 H       1  UNL1        0.0391
     16 H          -3.7494    2.3787    0.5300 H       1  UNL1        0.0391
     17 H          -4.2294    1.0657   -0.5672 H       1  UNL1        0.0391
     18 H          -2.8647   -1.0736   -0.4895 H       1  UNL1        0.0439
     19 H          -3.2475   -1.1783    1.2311 H       1  UNL1        0.0439
     20 H          -1.0839   -1.6686    1.8572 H       1  UNL1        0.0439
     21 H          -1.1129   -2.3677    0.2366 H       1  UNL1        0.0439
     22 H           1.3047   -2.1584    1.0384 H       1  UNL1        0.0481
     23 H           1.1232   -1.9710   -0.6988 H       1  UNL1        0.0481
     24 H           3.0536   -0.5676   -1.8779 H       1  UNL1        0.0626
     25 H           5.1772    0.8580   -1.1750 H       1  UNL1        0.0634
     26 H           0.5676    0.9776   -0.8733 H       1  UNL1        0.0439
     27 H          -0.4952   -0.2584   -1.5479 H       1  UNL1        0.0439
     28 H          -1.1337    2.1865    0.0833 H       1  UNL1        0.0439
     29 H          -1.9687    1.4894   -1.3065 H       1  UNL1        0.0439
@<TRIPOS>BOND
     1     1     2    1
     2     2     3    1
     3     3     4    1
     4     4     5    1
     5     5     6    1
     6     6     7    1
     7     7     8   ar
     8     8     9   ar
     9     9    10   ar
    10    10    11    1
    11    10    12   ar
    12     5    13    1
    13    13    14    1
    14    14     2    1
    15    12     7   ar
    16     1    15    1
    17     1    16    1
    18     1    17    1
    19     3    18    1
    20     3    19    1
    21     4    20    1
    22     4    21    1
    23     6    22    1
    24     6    23    1
    25     8    24    1
    26     9    25    1
    27    13    26    1
    28    13    27    1
    29    14    28    1
    30    14    29    1
