@<TRIPOS>MOLECULE
*****
 46 48 0 0 0
SMALL
GASTEIGER

@<TRIPOS>ATOM
      1 C           6.4467    1.5733    1.1592 C.3     1  UNL1       -0.0127
      2 N           5.2708    0.8076    0.7692 N.3     1  UNL1       -0.3029
      3 C           4.4311    1.5284   -0.1920 C.3     1  UNL1        0.0114
      4 C           3.1291    0.7578   -0.5460 C.3     1  UNL1        0.0120
      5 N           3.2175   -0.7139   -0.4357 N.3     1  UNL1       -0.2957
      6 C           2.2421   -1.4021   -1.2887 C.3     1  UNL1        0.0241
      7 C           0.8024   -1.1334   -0.9017 C.ar    1  UNL1       -0.0331
      8 C          -0.1101   -0.6312   -1.8389 C.ar    1  UNL1       -0.0539
      9 C          -1.4451   -0.3989   -1.4855 C.ar    1  UNL1       -0.0196
     10 C          -1.8859   -0.6685   -0.1899 C.ar    1  UNL1        0.1210
     11 O          -3.1553   -0.4874    0.2853 O.3     1  UNL1       -0.4874
     12 C          -4.1187    0.0483   -0.6205 C.3     1  UNL1        0.1146
     13 C          -5.4329    0.2264    0.1039 C.ar    1  UNL1       -0.0104
     14 C          -5.4910    0.9531    1.3027 C.ar    1  UNL1       -0.0554
     15 C          -6.7072    1.1422    1.9607 C.ar    1  UNL1       -0.0614
     16 C          -7.8793    0.6122    1.4253 C.ar    1  UNL1       -0.0617
     17 C          -7.8362   -0.1068    0.2321 C.ar    1  UNL1       -0.0614
     18 C          -6.6201   -0.2973   -0.4274 C.ar    1  UNL1       -0.0554
     19 C          -0.9812   -1.1736    0.7458 C.ar    1  UNL1       -0.0196
     20 C           0.3504   -1.4067    0.3956 C.ar    1  UNL1       -0.0539
     21 C           4.5874   -1.1663   -0.7024 C.3     1  UNL1        0.0120
     22 C           5.6328   -0.5240    0.2500 C.3     1  UNL1        0.0114
     23 H           6.1522    2.5219    1.6213 H       1  UNL1        0.0391
     24 H           7.0979    1.7949    0.3062 H       1  UNL1        0.0391
     25 H           7.0313    1.0262    1.9071 H       1  UNL1        0.0391
     26 H           4.1490    2.5093    0.2096 H       1  UNL1        0.0439
     27 H           4.9978    1.7091   -1.1157 H       1  UNL1        0.0439
     28 H           2.3368    1.0968    0.1325 H       1  UNL1        0.0439
     29 H           2.8397    1.0610   -1.5608 H       1  UNL1        0.0439
     30 H           2.4070   -1.1442   -2.3433 H       1  UNL1        0.0476
     31 H           2.3852   -2.4885   -1.2135 H       1  UNL1        0.0476
     32 H           0.2117   -0.4146   -2.8549 H       1  UNL1        0.0622
     33 H          -2.1101   -0.0086   -2.2482 H       1  UNL1        0.0654
     34 H          -4.2507   -0.6400   -1.4642 H       1  UNL1        0.0748
     35 H          -3.8001    1.0301   -0.9925 H       1  UNL1        0.0748
     36 H          -4.5811    1.3684    1.7318 H       1  UNL1        0.0621
     37 H          -6.7381    1.7011    2.8922 H       1  UNL1        0.0618
     38 H          -8.8257    0.7578    1.9390 H       1  UNL1        0.0618
     39 H          -8.7504   -0.5212   -0.1846 H       1  UNL1        0.0618
     40 H          -6.6069   -0.8616   -1.3570 H       1  UNL1        0.0621
     41 H          -1.3142   -1.3858    1.7588 H       1  UNL1        0.0654
     42 H           1.0423   -1.7922    1.1421 H       1  UNL1        0.0622
     43 H           4.6567   -2.2558   -0.5951 H       1  UNL1        0.0439
     44 H           4.8596   -0.9268   -1.7396 H       1  UNL1        0.0439
     45 H           6.5885   -0.4906   -0.2896 H       1  UNL1        0.0439
     46 H           5.7742   -1.1855    1.1135 H       1  UNL1        0.0439
@<TRIPOS>BOND
     1     1     2    1
     2     2     3    1
     3     3     4    1
     4     4     5    1
     5     5     6    1
     6     6     7    1
     7     7     8   ar
     8     8     9   ar
     9     9    10   ar
    10    10    11    1
    11    11    12    1
    12    12    13    1
    13    13    14   ar
    14    14    15   ar
    15    15    16   ar
    16    16    17   ar
    17    17    18   ar
    18    10    19   ar
    19    19    20   ar
    20     5    21    1
    21    21    22    1
    22    22     2    1
    23    20     7   ar
    24    18    13   ar
    25     1    23    1
    26     1    24    1
    27     1    25    1
    28     3    26    1
    29     3    27    1
    30     4    28    1
    31     4    29    1
    32     6    30    1
    33     6    31    1
    34     8    32    1
    35     9    33    1
    36    12    34    1
    37    12    35    1
    38    14    36    1
    39    15    37    1
    40    16    38    1
    41    17    39    1
    42    18    40    1
    43    19    41    1
    44    20    42    1
    45    21    43    1
    46    21    44    1
    47    22    45    1
    48    22    46    1
