@<TRIPOS>MOLECULE
*****
 20 20 0 0 0
SMALL
GASTEIGER

@<TRIPOS>ATOM
      1 C          -2.4254    0.5742   -1.8353 C.3     1  UNL1        0.0137
      2 N          -1.8929    0.3629   -0.5116 N.ar    1  UNL1       -0.3286
      3 C          -2.5856    0.5400    0.6576 C.ar    1  UNL1        0.0247
      4 C          -1.6928    0.2220    1.6543 C.ar    1  UNL1        0.0466
      5 N          -0.4809   -0.1395    1.1252 N.ar    1  UNL1       -0.2303
      6 C          -0.6302   -0.0478   -0.1762 C.ar    1  UNL1        0.1687
      7 S           0.5947   -0.3889   -1.3514 S.3     1  UNL1       -0.0867
      8 C           1.9336   -1.0214   -0.2885 C.3     1  UNL1        0.0139
      9 C           2.6621    0.1005    0.4441 C.3     1  UNL1        0.0442
     10 C           3.7818   -0.4484    1.2200 C.1     1  UNL1        0.0633
     11 N           4.6752   -0.8850    1.8184 N.1     1  UNL1       -0.1965
     12 H          -3.4671    0.8981   -1.7613 H       1  UNL1        0.0456
     13 H          -2.3755   -0.3671   -2.3883 H       1  UNL1        0.0456
     14 H          -1.8373    1.3510   -2.3303 H       1  UNL1        0.0456
     15 H          -3.6169    0.8630    0.6855 H       1  UNL1        0.0825
     16 H          -1.8596    0.2346    2.7239 H       1  UNL1        0.0845
     17 H           2.6351   -1.5521   -0.9431 H       1  UNL1        0.0390
     18 H           1.5374   -1.7674    0.4106 H       1  UNL1        0.0390
     19 H           1.9919    0.6400    1.1209 H       1  UNL1        0.0426
     20 H           3.0524    0.8314   -0.2745 H       1  UNL1        0.0426
@<TRIPOS>BOND
     1     1     2    1
     2     2     3   ar
     3     3     4   ar
     4     4     5   ar
     5     5     6   ar
     6     6     7    1
     7     7     8    1
     8     8     9    1
     9     9    10    1
    10    10    11    3
    11     6     2   ar
    12     1    12    1
    13     1    13    1
    14     1    14    1
    15     3    15    1
    16     4    16    1
    17     8    17    1
    18     8    18    1
    19     9    19    1
    20     9    20    1
