@<TRIPOS>MOLECULE
*****
 36 41 0 0 0
SMALL
GASTEIGER

@<TRIPOS>ATOM
      1 SI         -3.9258    2.2558   -0.9622 Si      1  UNL1        0.0000
      2 C          -5.3376    1.0250   -0.7700 C.2     1  UNL1        0.0000
      3 C          -4.9241   -0.2121   -0.4406 C.2     1  UNL1        0.0000
      4 C          -3.4753   -0.3010   -0.3114 C.ar    1  UNL1        0.0000
      5 C          -2.6861    0.8731   -0.5363 C.ar    1  UNL1        0.0000
      6 C          -1.2403    0.9334   -0.4434 C.ar    1  UNL1        0.0000
      7 C          -0.4751    2.0824   -0.6640 C.ar    1  UNL1        0.0000
      8 N           0.8787    2.1590   -0.5819 N.ar    1  UNL1        0.0000
      9 C           1.5741    1.0417   -0.2602 C.ar    1  UNL1        0.0000
     10 C           0.9381   -0.1655   -0.0160 C.ar    1  UNL1        0.0000
     11 C          -0.4689   -0.2212   -0.1072 C.ar    1  UNL1        0.0000
     12 C          -1.2743   -1.3735    0.1112 C.ar    1  UNL1        0.0000
     13 C          -0.8610   -2.6404    0.4478 C.ar    1  UNL1        0.0000
     14 N          -1.9910   -3.4265    0.5535 N.ar    1  UNL1        0.0000
     15 C          -3.1200   -2.6808    0.2895 C.ar    1  UNL1        0.0000
     16 C          -2.7013   -1.4045    0.0125 C.ar    1  UNL1        0.0000
     17 C           3.0355    1.1972   -0.1891 C.ar    1  UNL1        0.0000
     18 S           3.7847    2.7599   -0.5075 S.2     1  UNL1        0.0000
     19 C           5.3931    2.1905   -0.2518 C.ar    1  UNL1        0.0000
     20 C           5.3149    0.8860    0.0547 C.ar    1  UNL1        0.0000
     21 O           6.3693    0.0705    0.3281 O.2     1  UNL1        0.0000
     22 C           5.6945   -1.1101    0.5606 C.ar    1  UNL1        0.0000
     23 C           4.3037   -1.0088    0.4330 C.ar    1  UNL1        0.0000
     24 C           4.0526    0.3388    0.0919 C.ar    1  UNL1        0.0000
     25 H          -3.7737    2.7307   -2.3594 H       1  UNL1        0.0000
     26 H          -3.9545    3.3179    0.0731 H       1  UNL1        0.0000
     27 H          -6.3600    1.3359   -0.9209 H       1  UNL1        0.0000
     28 H          -5.5739   -1.0612   -0.2839 H       1  UNL1        0.0000
     29 H          -0.9347    3.0311   -0.9273 H       1  UNL1        0.0000
     30 H           1.4932   -1.0555    0.2405 H       1  UNL1        0.0000
     31 H           0.1154   -3.0692    0.6238 H       1  UNL1        0.0000
     32 H          -1.9914   -4.4102    0.7909 H       1  UNL1        0.0000
     33 H          -4.1005   -3.1352    0.3263 H       1  UNL1        0.0000
     34 H           6.2725    2.8117   -0.3352 H       1  UNL1        0.0000
     35 H           6.3406   -1.9426    0.8077 H       1  UNL1        0.0000
     36 H           3.6086   -1.8220    0.5758 H       1  UNL1        0.0000
@<TRIPOS>BOND
     1     1     2    1
     2     2     3    2
     3     3     4    1
     4     4     5   ar
     5     5     6   ar
     6     6     7   ar
     7     7     8   ar
     8     8     9   ar
     9     9    10   ar
    10    10    11   ar
    11    11    12   ar
    12    12    13   ar
    13    13    14   ar
    14    14    15   ar
    15    15    16   ar
    16     9    17    1
    17    17    18   ar
    18    18    19   ar
    19    19    20   ar
    20    20    21   ar
    21    21    22   ar
    22    22    23   ar
    23    23    24   ar
    24     5     1    1
    25    11     6   ar
    26    16    12   ar
    27    24    17   ar
    28    16     4   ar
    29    24    20   ar
    30     1    25    1
    31     1    26    1
    32     2    27    1
    33     3    28    1
    34     7    29    1
    35    10    30    1
    36    13    31    1
    37    14    32    1
    38    15    33    1
    39    19    34    1
    40    22    35    1
    41    23    36    1
