@<TRIPOS>MOLECULE
*****
 29 31 0 0 0
SMALL
GASTEIGER

@<TRIPOS>ATOM
      1 C           0.8616    3.1798    0.6512 C.3     1  UNL1        0.0310
      2 N          -0.0771    2.1460    0.2762 N.ar    1  UNL1       -0.2626
      3 N          -1.3801    2.4882    0.1609 N.ar    1  UNL1       -0.1708
      4 C          -2.0208    1.3379   -0.0847 C.ar    1  UNL1        0.0939
      5 C          -1.0617    0.2603   -0.1508 C.ar    1  UNL1        0.0370
      6 C          -1.3401   -1.0852   -0.4023 C.ar    1  UNL1        0.0269
      7 C          -2.7285   -1.2936   -0.5865 C.ar    1  UNL1        0.2739
      8 N          -3.1869   -2.6635   -0.8712 N.pl3   1  UNL1        0.0796
      9 O          -4.3926   -2.9085   -0.7231 O.co2   1  UNL1       -0.5760
     10 O          -2.3426   -3.4863   -1.2518 O.2     1  UNL1        0.0414
     11 C          -3.7162   -0.2512   -0.5227 C.ar    1  UNL1        0.0177
     12 C          -3.3936    1.1012   -0.2706 C.ar    1  UNL1       -0.0276
     13 C           0.1826    0.8123    0.0557 C.ar    1  UNL1        0.1115
     14 C           1.4761    0.2000    0.0835 C.ar    1  UNL1        0.1542
     15 C           2.6812    0.6523   -0.4278 C.ar    1  UNL1       -0.0136
     16 C           3.6564   -0.3384   -0.1501 C.ar    1  UNL1       -0.0126
     17 C           3.0006   -1.3538    0.5127 C.ar    1  UNL1        0.1676
     18 O           1.6829   -1.0304    0.6480 O.2     1  UNL1       -0.4507
     19 C           3.4663   -2.6115    1.0376 C.2     1  UNL1        0.1851
     20 O           2.7841   -3.4426    1.6309 O.2     1  UNL1       -0.2924
     21 H           1.3720    3.5210   -0.2523 H       1  UNL1        0.0473
     22 H           1.5719    2.7759    1.3763 H       1  UNL1        0.0473
     23 H           0.3190    4.0116    1.1092 H       1  UNL1        0.0473
     24 H          -0.5984   -1.8727   -0.4483 H       1  UNL1        0.0692
     25 H          -4.7685   -0.4954   -0.6780 H       1  UNL1        0.0686
     26 H          -4.1329    1.8894   -0.2250 H       1  UNL1        0.0642
     27 H           2.8402    1.5803   -0.9595 H       1  UNL1        0.0656
     28 H           4.7057   -0.3153   -0.4111 H       1  UNL1        0.0656
     29 H           4.5396   -2.8079    0.8737 H       1  UNL1        0.1114
@<TRIPOS>UNITY_ATOM_ATTR
8 1
charge 1
9 1
charge -1
@<TRIPOS>BOND
     1     1     2    1
     2     2     3   ar
     3     3     4   ar
     4     4     5   ar
     5     5     6   ar
     6     6     7   ar
     7     7     8    1
     8     8     9    1
     9     8    10    2
    10     7    11   ar
    11    11    12   ar
    12     5    13   ar
    13    13    14    1
    14    14    15   ar
    15    15    16   ar
    16    16    17   ar
    17    17    18   ar
    18    17    19    1
    19    19    20    2
    20    13     2   ar
    21    12     4   ar
    22    18    14   ar
    23     1    21    1
    24     1    22    1
    25     1    23    1
    26     6    24    1
    27    11    25    1
    28    12    26    1
    29    15    27    1
    30    16    28    1
    31    19    29    1
