@<TRIPOS>MOLECULE
*****
 33 35 0 0 0
SMALL
GASTEIGER

@<TRIPOS>ATOM
      1 C          -1.5379    3.0018    1.6985 C.3     1  UNL1        0.0310
      2 N          -0.5289    2.2610    0.9751 N.ar    1  UNL1       -0.2626
      3 N           0.7104    2.7975    0.8893 N.ar    1  UNL1       -0.1708
      4 C           1.4451    1.8669    0.2650 C.ar    1  UNL1        0.0935
      5 C           0.6137    0.7362   -0.0599 C.ar    1  UNL1        0.0313
      6 C           1.0198   -0.4238   -0.7228 C.ar    1  UNL1       -0.0399
      7 C           2.3966   -0.3973   -1.0552 C.ar    1  UNL1        0.0179
      8 C           2.9380   -1.5987   -1.7689 C.2     1  UNL1        0.1601
      9 C           4.4239   -1.7150   -1.9885 C.3     1  UNL1       -0.0014
     10 O           2.1720   -2.4723   -2.1714 O.2     1  UNL1       -0.2924
     11 C           3.2498    0.7149   -0.7431 C.ar    1  UNL1       -0.0492
     12 C           2.8071    1.8818   -0.0754 C.ar    1  UNL1       -0.0333
     13 C          -0.6570    1.0258    0.3822 C.ar    1  UNL1        0.1113
     14 C          -1.8642    0.2601    0.3081 C.ar    1  UNL1        0.1535
     15 C          -3.1574    0.6723    0.0293 C.ar    1  UNL1       -0.0141
     16 C          -3.9848   -0.4771    0.0628 C.ar    1  UNL1       -0.0203
     17 C          -3.1552   -1.5348    0.3514 C.ar    1  UNL1        0.1028
     18 O          -1.8767   -1.0973    0.4978 O.2     1  UNL1       -0.4584
     19 C          -3.3694   -2.9854    0.5167 C.3     1  UNL1       -0.0063
     20 H          -1.0513    3.7351    2.3479 H       1  UNL1        0.0473
     21 H          -2.1730    3.5129    0.9714 H       1  UNL1        0.0473
     22 H          -2.1197    2.3120    2.3142 H       1  UNL1        0.0473
     23 H           0.3698   -1.2572   -0.9606 H       1  UNL1        0.0632
     24 H           4.6507   -2.7100   -2.3847 H       1  UNL1        0.0309
     25 H           4.7563   -0.9711   -2.7168 H       1  UNL1        0.0309
     26 H           4.9608   -1.6057   -1.0427 H       1  UNL1        0.0309
     27 H           4.2999    0.6928   -1.0301 H       1  UNL1        0.0625
     28 H           3.4545    2.7172    0.1534 H       1  UNL1        0.0640
     29 H          -3.4704    1.6820   -0.1951 H       1  UNL1        0.0656
     30 H          -5.0499   -0.5292   -0.1149 H       1  UNL1        0.0652
     31 H          -2.7817   -3.5452   -0.2173 H       1  UNL1        0.0308
     32 H          -3.0674   -3.3053    1.5186 H       1  UNL1        0.0308
     33 H          -4.4236   -3.2450    0.3791 H       1  UNL1        0.0308
@<TRIPOS>BOND
     1     1     2    1
     2     2     3   ar
     3     3     4   ar
     4     4     5   ar
     5     5     6   ar
     6     6     7   ar
     7     7     8    1
     8     8     9    1
     9     8    10    2
    10     7    11   ar
    11    11    12   ar
    12     5    13   ar
    13    13    14    1
    14    14    15   ar
    15    15    16   ar
    16    16    17   ar
    17    17    18   ar
    18    17    19    1
    19    13     2   ar
    20    12     4   ar
    21    18    14   ar
    22     1    20    1
    23     1    21    1
    24     1    22    1
    25     6    23    1
    26     9    24    1
    27     9    25    1
    28     9    26    1
    29    11    27    1
    30    12    28    1
    31    15    29    1
    32    16    30    1
    33    19    31    1
    34    19    32    1
    35    19    33    1
