@<TRIPOS>MOLECULE
*****
 35 37 0 0 0
SMALL
GASTEIGER

@<TRIPOS>ATOM
      1 C          -0.7680   -3.7191   -0.5339 C.3     1  UNL1        0.0310
      2 N           0.1791   -2.6662   -0.2434 N.ar    1  UNL1       -0.2626
      3 N           1.4976   -2.9600   -0.3146 N.ar    1  UNL1       -0.1708
      4 C           2.1219   -1.7945   -0.0935 C.ar    1  UNL1        0.0935
      5 C           1.1435   -0.7634    0.1457 C.ar    1  UNL1        0.0313
      6 C           1.4071    0.5775    0.4298 C.ar    1  UNL1       -0.0399
      7 C           2.7959    0.8516    0.4492 C.ar    1  UNL1        0.0179
      8 C           3.1977    2.2584    0.7554 C.2     1  UNL1        0.1601
      9 C           4.5683    2.7313    0.3470 C.3     1  UNL1       -0.0014
     10 O           2.4171    3.0034    1.3439 O.2     1  UNL1       -0.2924
     11 C           3.7958   -0.1513    0.2133 C.ar    1  UNL1       -0.0492
     12 C           3.4958   -1.5056   -0.0662 C.ar    1  UNL1       -0.0333
     13 C          -0.0958   -1.3550    0.0685 C.ar    1  UNL1        0.1113
     14 C          -1.4029   -0.7981    0.2288 C.ar    1  UNL1        0.1542
     15 C          -2.4823   -1.2816    0.9467 C.ar    1  UNL1       -0.0136
     16 C          -3.5361   -0.3452    0.8010 C.ar    1  UNL1       -0.0123
     17 C          -3.0542    0.6709   -0.0008 C.ar    1  UNL1        0.1705
     18 O          -1.7600    0.3933   -0.3403 O.2     1  UNL1       -0.4504
     19 C          -3.6453    1.8959   -0.5037 C.2     1  UNL1        0.1949
     20 C          -5.0519    2.1976   -0.0459 C.3     1  UNL1        0.0017
     21 O          -3.0713    2.6710   -1.2687 O.2     1  UNL1       -0.2891
     22 H          -1.1486   -4.1064    0.4140 H       1  UNL1        0.0473
     23 H          -0.2637   -4.5164   -1.0871 H       1  UNL1        0.0473
     24 H          -1.5776   -3.3160   -1.1468 H       1  UNL1        0.0473
     25 H           0.6527    1.3332    0.6126 H       1  UNL1        0.0632
     26 H           4.5704    3.8250    0.3047 H       1  UNL1        0.0309
     27 H           4.8241    2.3664   -0.6514 H       1  UNL1        0.0309
     28 H           5.3093    2.4031    1.0799 H       1  UNL1        0.0309
     29 H           4.8508    0.1145    0.2629 H       1  UNL1        0.0625
     30 H           4.2525   -2.2589   -0.2371 H       1  UNL1        0.0640
     31 H          -2.5027   -2.1928    1.5285 H       1  UNL1        0.0656
     32 H          -4.5239   -0.4070    1.2367 H       1  UNL1        0.0656
     33 H          -5.3769    3.1532   -0.4684 H       1  UNL1        0.0310
     34 H          -5.0841    2.2749    1.0444 H       1  UNL1        0.0310
     35 H          -5.7346    1.4165   -0.3913 H       1  UNL1        0.0310
@<TRIPOS>BOND
     1     1     2    1
     2     2     3   ar
     3     3     4   ar
     4     4     5   ar
     5     5     6   ar
     6     6     7   ar
     7     7     8    1
     8     8     9    1
     9     8    10    2
    10     7    11   ar
    11    11    12   ar
    12     5    13   ar
    13    13    14    1
    14    14    15   ar
    15    15    16   ar
    16    16    17   ar
    17    17    18   ar
    18    17    19    1
    19    19    20    1
    20    19    21    2
    21    13     2   ar
    22    12     4   ar
    23    18    14   ar
    24     1    22    1
    25     1    23    1
    26     1    24    1
    27     6    25    1
    28     9    26    1
    29     9    27    1
    30     9    28    1
    31    11    29    1
    32    12    30    1
    33    15    31    1
    34    16    32    1
    35    20    33    1
    36    20    34    1
    37    20    35    1
