@<TRIPOS>MOLECULE
*****
 39 41 0 0 0
SMALL
GASTEIGER

@<TRIPOS>ATOM
      1 C           0.2326    2.4867   -1.8850 C.3     1  UNL1        0.0310
      2 N          -0.8720    1.7483   -1.3113 N.ar    1  UNL1       -0.2626
      3 N          -2.1263    2.0813   -1.6921 N.ar    1  UNL1       -0.1708
      4 C          -2.9245    1.2452   -1.0178 C.ar    1  UNL1        0.0935
      5 C          -2.1251    0.3812   -0.1825 C.ar    1  UNL1        0.0313
      6 C          -2.6145   -0.6354    0.6418 C.ar    1  UNL1       -0.0399
      7 C          -4.0281   -0.7357    0.6006 C.ar    1  UNL1        0.0179
      8 C          -4.6465   -1.7947    1.4612 C.2     1  UNL1        0.1601
      9 C          -6.1196   -2.0815    1.3321 C.3     1  UNL1       -0.0014
     10 O          -3.9495   -2.4123    2.2645 O.2     1  UNL1       -0.2924
     11 C          -4.8450    0.1211   -0.2083 C.ar    1  UNL1       -0.0492
     12 C          -4.3243    1.1351   -1.0454 C.ar    1  UNL1       -0.0333
     13 C          -0.8078    0.7389   -0.3728 C.ar    1  UNL1        0.1113
     14 C           0.4201    0.2610    0.1932 C.ar    1  UNL1        0.1544
     15 C           0.6631   -0.2982    1.4362 C.ar    1  UNL1       -0.0135
     16 C           2.0457   -0.5987    1.5041 C.ar    1  UNL1       -0.0086
     17 C           2.5968   -0.1983    0.3034 C.ar    1  UNL1        0.2121
     18 O           1.6098    0.3262   -0.4842 O.2     1  UNL1       -0.4467
     19 C           3.9423   -0.2316   -0.2191 C.2     1  UNL1        0.3749
     20 O           4.7743   -0.8091    0.6977 O.3     1  UNL1       -0.4593
     21 C           6.1517   -0.9157    0.3108 C.3     1  UNL1        0.0901
     22 C           6.8957    0.3577    0.6671 C.3     1  UNL1       -0.0306
     23 O           4.3001    0.1952   -1.3102 O.2     1  UNL1       -0.2415
     24 H          -0.1556    3.3337   -2.4577 H       1  UNL1        0.0473
     25 H           0.8665    2.8597   -1.0769 H       1  UNL1        0.0473
     26 H           0.7859    1.8178   -2.5483 H       1  UNL1        0.0473
     27 H          -2.0073   -1.2988    1.2426 H       1  UNL1        0.0632
     28 H          -6.3640   -2.9721    1.9198 H       1  UNL1        0.0309
     29 H          -6.7020   -1.2424    1.7206 H       1  UNL1        0.0309
     30 H          -6.3794   -2.2906    0.2911 H       1  UNL1        0.0309
     31 H          -5.9282    0.0115   -0.1985 H       1  UNL1        0.0625
     32 H          -4.9439    1.7747   -1.6592 H       1  UNL1        0.0640
     33 H          -0.0666   -0.4624    2.2170 H       1  UNL1        0.0656
     34 H           2.5806   -1.0453    2.3315 H       1  UNL1        0.0658
     35 H           6.5758   -1.7570    0.8688 H       1  UNL1        0.0695
     36 H           6.2508   -1.1549   -0.7542 H       1  UNL1        0.0695
     37 H           6.7887    0.5795    1.7340 H       1  UNL1        0.0262
     38 H           6.4906    1.2157    0.1214 H       1  UNL1        0.0262
     39 H           7.9594    0.2643    0.4309 H       1  UNL1        0.0262
@<TRIPOS>BOND
     1     1     2    1
     2     2     3   ar
     3     3     4   ar
     4     4     5   ar
     5     5     6   ar
     6     6     7   ar
     7     7     8    1
     8     8     9    1
     9     8    10    2
    10     7    11   ar
    11    11    12   ar
    12     5    13   ar
    13    13    14    1
    14    14    15   ar
    15    15    16   ar
    16    16    17   ar
    17    17    18   ar
    18    17    19    1
    19    19    20    1
    20    20    21    1
    21    21    22    1
    22    19    23    2
    23    13     2   ar
    24    12     4   ar
    25    18    14   ar
    26     1    24    1
    27     1    25    1
    28     1    26    1
    29     6    27    1
    30     9    28    1
    31     9    29    1
    32     9    30    1
    33    11    31    1
    34    12    32    1
    35    15    33    1
    36    16    34    1
    37    21    35    1
    38    21    36    1
    39    22    37    1
    40    22    38    1
    41    22    39    1
