@<TRIPOS>MOLECULE
*****
 32 34 0 0 0
SMALL
GASTEIGER

@<TRIPOS>ATOM
      1 C          -2.0442    2.5767    1.3761 C.3     1  UNL1        0.0310
      2 N          -0.7911    2.0088    0.9266 N.ar    1  UNL1       -0.2626
      3 N           0.3145    2.7842    0.9778 N.ar    1  UNL1       -0.1708
      4 C           1.2989    2.0171    0.4942 C.ar    1  UNL1        0.0935
      5 C           0.7736    0.7145    0.1557 C.ar    1  UNL1        0.0313
      6 C           1.4989   -0.3429   -0.4055 C.ar    1  UNL1       -0.0399
      7 C           2.8615   -0.0129   -0.6013 C.ar    1  UNL1        0.0179
      8 C           3.8058   -1.0153   -1.1928 C.2     1  UNL1        0.1601
      9 C           3.2654   -2.3379   -1.6718 C.3     1  UNL1       -0.0014
     10 O           5.0042   -0.7552   -1.2786 O.2     1  UNL1       -0.2924
     11 C           3.4092    1.2689   -0.2552 C.ar    1  UNL1       -0.0492
     12 C           2.6536    2.3263    0.2987 C.ar    1  UNL1       -0.0333
     13 C          -0.5683    0.7261    0.4703 C.ar    1  UNL1        0.1113
     14 C          -1.5939   -0.2714    0.3878 C.ar    1  UNL1        0.1542
     15 C          -1.5053   -1.6454    0.5391 C.ar    1  UNL1       -0.0136
     16 C          -2.8088   -2.1773    0.3719 C.ar    1  UNL1       -0.0126
     17 C          -3.6384   -1.1019    0.1402 C.ar    1  UNL1        0.1676
     18 O          -2.9057    0.0476    0.1535 O.2     1  UNL1       -0.4507
     19 C          -5.0576   -1.0171   -0.0885 C.2     1  UNL1        0.1851
     20 O          -5.6980    0.0182   -0.2520 O.2     1  UNL1       -0.2924
     21 H          -1.8559    3.5473    1.8436 H       1  UNL1        0.0473
     22 H          -2.4938    1.9046    2.1110 H       1  UNL1        0.0473
     23 H          -2.6936    2.7068    0.5072 H       1  UNL1        0.0473
     24 H           1.0666   -1.2941   -0.6730 H       1  UNL1        0.0632
     25 H           2.8824   -2.9176   -0.8281 H       1  UNL1        0.0309
     26 H           4.0748   -2.9083   -2.1386 H       1  UNL1        0.0309
     27 H           2.4890   -2.1822   -2.4253 H       1  UNL1        0.0309
     28 H           4.4712    1.4511   -0.4334 H       1  UNL1        0.0625
     29 H           3.0761    3.2905    0.5456 H       1  UNL1        0.0640
     30 H          -0.6077   -2.2040    0.7645 H       1  UNL1        0.0656
     31 H          -3.1035   -3.2163    0.4285 H       1  UNL1        0.0656
     32 H          -5.5801   -1.9888   -0.1067 H       1  UNL1        0.1114
@<TRIPOS>BOND
     1     1     2    1
     2     2     3   ar
     3     3     4   ar
     4     4     5   ar
     5     5     6   ar
     6     6     7   ar
     7     7     8    1
     8     8     9    1
     9     8    10    2
    10     7    11   ar
    11    11    12   ar
    12     5    13   ar
    13    13    14    1
    14    14    15   ar
    15    15    16   ar
    16    16    17   ar
    17    17    18   ar
    18    17    19    1
    19    19    20    2
    20    13     2   ar
    21    12     4   ar
    22    18    14   ar
    23     1    21    1
    24     1    22    1
    25     1    23    1
    26     6    24    1
    27     9    25    1
    28     9    26    1
    29     9    27    1
    30    11    28    1
    31    12    29    1
    32    15    30    1
    33    16    31    1
    34    19    32    1
