@<TRIPOS>MOLECULE
*****
 34 36 0 0 0
SMALL
GASTEIGER

@<TRIPOS>ATOM
      1 C           1.2634   -3.1540   -0.9324 C.3     1  UNL1        0.0310
      2 N           0.1677   -2.2369   -0.7040 N.ar    1  UNL1       -0.2626
      3 N          -1.0922   -2.6851   -0.9088 N.ar    1  UNL1       -0.1708
      4 C          -1.8793   -1.6405   -0.6247 C.ar    1  UNL1        0.0935
      5 C          -1.0672   -0.5191   -0.2171 C.ar    1  UNL1        0.0313
      6 C          -1.5423    0.7483    0.1295 C.ar    1  UNL1       -0.0399
      7 C          -2.9556    0.8356    0.0625 C.ar    1  UNL1        0.0179
      8 C          -3.5599    2.1572    0.4263 C.2     1  UNL1        0.1601
      9 C          -5.0302    2.3844    0.1908 C.3     1  UNL1       -0.0014
     10 O          -2.8542    3.0371    0.9165 O.2     1  UNL1       -0.2924
     11 C          -3.7854   -0.2681   -0.3239 C.ar    1  UNL1       -0.0492
     12 C          -3.2788   -1.5387   -0.6833 C.ar    1  UNL1       -0.0333
     13 C           0.2461   -0.9343   -0.2574 C.ar    1  UNL1        0.1114
     14 C           1.4824   -0.2787    0.0554 C.ar    1  UNL1        0.1575
     15 C           1.7433    0.7250    0.9745 C.ar    1  UNL1       -0.0105
     16 C           3.1278    1.0197    0.9008 C.ar    1  UNL1        0.0222
     17 C           3.6462    0.1743   -0.0516 C.ar    1  UNL1        0.2866
     18 O           4.8391   -0.0662   -0.5847 O.3     1  UNL1       -0.4673
     19 C           5.8959    0.7491   -0.0991 C.3     1  UNL1        0.0819
     20 O           2.6631   -0.6121   -0.5583 O.2     1  UNL1       -0.4233
     21 H           1.9051   -3.1665   -0.0482 H       1  UNL1        0.0473
     22 H           1.8114   -2.8214   -1.8170 H       1  UNL1        0.0473
     23 H           0.8662   -4.1587   -1.1024 H       1  UNL1        0.0473
     24 H          -0.9246    1.5922    0.4058 H       1  UNL1        0.0632
     25 H          -5.2614    3.4406    0.3618 H       1  UNL1        0.0309
     26 H          -5.6201    1.7852    0.8889 H       1  UNL1        0.0309
     27 H          -5.2931    2.1520   -0.8444 H       1  UNL1        0.0309
     28 H          -4.8679   -0.1544   -0.3500 H       1  UNL1        0.0625
     29 H          -3.9081   -2.3666   -0.9805 H       1  UNL1        0.0640
     30 H           1.0243    1.1872    1.6362 H       1  UNL1        0.0657
     31 H           3.6706    1.7526    1.4790 H       1  UNL1        0.0689
     32 H           6.0472    0.5959    0.9749 H       1  UNL1        0.0661
     33 H           6.8150    0.4583   -0.6164 H       1  UNL1        0.0661
     34 H           5.7055    1.8065   -0.3125 H       1  UNL1        0.0661
@<TRIPOS>BOND
     1     1     2    1
     2     2     3   ar
     3     3     4   ar
     4     4     5   ar
     5     5     6   ar
     6     6     7   ar
     7     7     8    1
     8     8     9    1
     9     8    10    2
    10     7    11   ar
    11    11    12   ar
    12     5    13   ar
    13    13    14    1
    14    14    15   ar
    15    15    16   ar
    16    16    17   ar
    17    17    18    1
    18    18    19    1
    19    17    20   ar
    20    13     2   ar
    21    12     4   ar
    22    20    14   ar
    23     1    21    1
    24     1    22    1
    25     1    23    1
    26     6    24    1
    27     9    25    1
    28     9    26    1
    29     9    27    1
    30    11    28    1
    31    12    29    1
    32    15    30    1
    33    16    31    1
    34    19    32    1
    35    19    33    1
    36    19    34    1
