@<TRIPOS>MOLECULE
*****
 33 35 0 0 0
SMALL
GASTEIGER

@<TRIPOS>ATOM
      1 C           1.5426   -3.2113    1.0238 C.3     1  UNL1        0.0309
      2 N           0.3899   -2.4499    0.5970 N.ar    1  UNL1       -0.2651
      3 N          -0.8076   -3.0726    0.5282 N.ar    1  UNL1       -0.1709
      4 C          -1.6708   -2.1200    0.1464 C.ar    1  UNL1        0.0934
      5 C          -0.9634   -0.8760   -0.0358 C.ar    1  UNL1        0.0288
      6 C          -1.5116    0.3431   -0.4423 C.ar    1  UNL1       -0.0400
      7 C          -2.9054    0.2460   -0.6613 C.ar    1  UNL1        0.0179
      8 C          -3.6864    1.4472   -1.0996 C.2     1  UNL1        0.1601
      9 C          -2.9798    2.7714   -1.2347 C.3     1  UNL1       -0.0014
     10 O          -4.8867    1.3437   -1.3452 O.2     1  UNL1       -0.2924
     11 C          -3.6382   -0.9792   -0.4848 C.ar    1  UNL1       -0.0492
     12 C          -3.0534   -2.2009   -0.0779 C.ar    1  UNL1       -0.0333
     13 C           0.3594   -1.1189    0.2499 C.ar    1  UNL1        0.0829
     14 C           1.5082   -0.2658    0.2263 C.ar    1  UNL1        0.0380
     15 C           2.5651   -0.3203   -0.6576 C.ar    1  UNL1       -0.0452
     16 C           3.5467    0.6775   -0.3850 C.ar    1  UNL1       -0.0512
     17 C           3.2071    1.4607    0.6985 C.ar    1  UNL1       -0.0126
     18 S           1.7080    0.9853    1.3737 S.2     1  UNL1       -0.0919
     19 C           3.9617    2.5989    1.2947 C.3     1  UNL1       -0.0334
     20 H           2.1612   -3.4146    0.1465 H       1  UNL1        0.0473
     21 H           1.2106   -4.1513    1.4727 H       1  UNL1        0.0473
     22 H           2.0967   -2.6321    1.7664 H       1  UNL1        0.0473
     23 H          -0.9310    1.2444   -0.5727 H       1  UNL1        0.0632
     24 H          -3.7091    3.5410   -1.5070 H       1  UNL1        0.0309
     25 H          -2.5273    3.0606   -0.2827 H       1  UNL1        0.0309
     26 H          -2.2282    2.7199   -2.0266 H       1  UNL1        0.0309
     27 H          -4.7137   -0.9770   -0.6751 H       1  UNL1        0.0625
     28 H          -3.6168   -3.1150    0.0483 H       1  UNL1        0.0640
     29 H           2.6332   -1.0351   -1.4692 H       1  UNL1        0.0630
     30 H           4.4554    0.8128   -0.9598 H       1  UNL1        0.0626
     31 H           4.2162    2.3916    2.3393 H       1  UNL1        0.0283
     32 H           4.8959    2.7758    0.7514 H       1  UNL1        0.0283
     33 H           3.3713    3.5201    1.2542 H       1  UNL1        0.0283
@<TRIPOS>BOND
     1     1     2    1
     2     2     3   ar
     3     3     4   ar
     4     4     5   ar
     5     5     6   ar
     6     6     7   ar
     7     7     8    1
     8     8     9    1
     9     8    10    2
    10     7    11   ar
    11    11    12   ar
    12     5    13   ar
    13    13    14    1
    14    14    15   ar
    15    15    16   ar
    16    16    17   ar
    17    17    18   ar
    18    17    19    1
    19    13     2   ar
    20    12     4   ar
    21    18    14   ar
    22     1    20    1
    23     1    21    1
    24     1    22    1
    25     6    23    1
    26     9    24    1
    27     9    25    1
    28     9    26    1
    29    11    27    1
    30    12    28    1
    31    15    29    1
    32    16    30    1
    33    19    31    1
    34    19    32    1
    35    19    33    1
