@<TRIPOS>MOLECULE
*****
 32 34 0 0 0
SMALL
GASTEIGER

@<TRIPOS>ATOM
      1 C           1.7235   -2.9467   -1.4059 C.3     1  UNL1        0.0309
      2 N           0.5578   -2.2589   -0.8972 N.ar    1  UNL1       -0.2651
      3 N          -0.6329   -2.8955   -0.9343 N.ar    1  UNL1       -0.1709
      4 C          -1.5148   -2.0085   -0.4516 C.ar    1  UNL1        0.0934
      5 C          -0.8251   -0.7935   -0.0909 C.ar    1  UNL1        0.0288
      6 C          -1.3974    0.3565    0.4593 C.ar    1  UNL1       -0.0400
      7 C          -2.7949    0.2195    0.6288 C.ar    1  UNL1        0.0179
      8 C          -3.5996    1.3459    1.2014 C.2     1  UNL1        0.1601
      9 C          -2.9328    2.6764    1.4374 C.3     1  UNL1       -0.0014
     10 O          -4.7856    1.1750    1.4763 O.2     1  UNL1       -0.2924
     11 C          -3.5091   -0.9784    0.2777 C.ar    1  UNL1       -0.0492
     12 C          -2.9009   -2.1306   -0.2720 C.ar    1  UNL1       -0.0333
     13 C           0.5075   -0.9876   -0.3719 C.ar    1  UNL1        0.0829
     14 C           1.6481   -0.1391   -0.2016 C.ar    1  UNL1        0.0385
     15 C           2.7054   -0.3321    0.6631 C.ar    1  UNL1       -0.0448
     16 C           3.6755    0.7104    0.5692 C.ar    1  UNL1       -0.0438
     17 C           3.3247    1.6643   -0.3649 C.ar    1  UNL1        0.0520
     18 S           1.8370    1.2913   -1.1183 S.2     1  UNL1       -0.0841
     19 C           4.0509    2.8610   -0.7317 C.2     1  UNL1        0.1568
     20 O           3.7072    3.6964   -1.5643 O.2     1  UNL1       -0.2952
     21 H           1.4055   -3.8006   -2.0103 H       1  UNL1        0.0473
     22 H           2.3004   -2.2588   -2.0287 H       1  UNL1        0.0473
     23 H           2.3148   -3.2910   -0.5541 H       1  UNL1        0.0473
     24 H          -0.8331    1.2383    0.7240 H       1  UNL1        0.0632
     25 H          -2.2020    2.5934    2.2458 H       1  UNL1        0.0309
     26 H          -2.4615    3.0366    0.5192 H       1  UNL1        0.0309
     27 H          -3.6902    3.4098    1.7320 H       1  UNL1        0.0309
     28 H          -4.5885   -1.0104    0.4415 H       1  UNL1        0.0625
     29 H          -3.4507   -3.0251   -0.5299 H       1  UNL1        0.0640
     30 H           2.7794   -1.1747    1.3413 H       1  UNL1        0.0630
     31 H           4.5801    0.7526    1.1650 H       1  UNL1        0.0630
     32 H           5.0013    3.0041   -0.1884 H       1  UNL1        0.1087
@<TRIPOS>BOND
     1     1     2    1
     2     2     3   ar
     3     3     4   ar
     4     4     5   ar
     5     5     6   ar
     6     6     7   ar
     7     7     8    1
     8     8     9    1
     9     8    10    2
    10     7    11   ar
    11    11    12   ar
    12     5    13   ar
    13    13    14    1
    14    14    15   ar
    15    15    16   ar
    16    16    17   ar
    17    17    18   ar
    18    17    19    1
    19    19    20    2
    20    13     2   ar
    21    12     4   ar
    22    18    14   ar
    23     1    21    1
    24     1    22    1
    25     1    23    1
    26     6    24    1
    27     9    25    1
    28     9    26    1
    29     9    27    1
    30    11    28    1
    31    12    29    1
    32    15    30    1
    33    16    31    1
    34    19    32    1
