@<TRIPOS>MOLECULE
*****
 30 32 0 0 0
SMALL
GASTEIGER

@<TRIPOS>ATOM
      1 C          -0.2453   -3.3668   -0.4970 C.3     1  UNL1        0.0310
      2 N          -0.8050   -2.0352   -0.5580 N.ar    1  UNL1       -0.2626
      3 N          -2.1156   -1.9137   -0.8724 N.ar    1  UNL1       -0.1708
      4 C          -2.3779   -0.6049   -0.7552 C.ar    1  UNL1        0.0935
      5 C          -1.1729    0.0948   -0.3801 C.ar    1  UNL1        0.0313
      6 C          -1.0447    1.4695   -0.1748 C.ar    1  UNL1       -0.0401
      7 C          -2.2736    2.1374   -0.3712 C.ar    1  UNL1        0.0149
      8 C          -2.3143    3.6069   -0.1912 C.2     1  UNL1        0.1502
      9 O          -1.3234    4.2606    0.1084 O.2     1  UNL1       -0.2957
     10 C          -3.4925    1.4805   -0.7393 C.ar    1  UNL1       -0.0494
     11 C          -3.5871    0.0857   -0.9457 C.ar    1  UNL1       -0.0333
     12 C          -0.1707   -0.8440   -0.2882 C.ar    1  UNL1        0.1113
     13 C           1.2152   -0.6946    0.0381 C.ar    1  UNL1        0.1535
     14 C           2.3257   -1.3149   -0.5116 C.ar    1  UNL1       -0.0141
     15 C           3.4680   -0.8074    0.1550 C.ar    1  UNL1       -0.0203
     16 C           2.9998    0.1039    1.0719 C.ar    1  UNL1        0.1028
     17 O           1.6444    0.1783    1.0039 O.2     1  UNL1       -0.4584
     18 C           3.6508    0.9824    2.0630 C.3     1  UNL1       -0.0063
     19 H          -1.0553   -4.0944   -0.3937 H       1  UNL1        0.0473
     20 H           0.4132   -3.4420    0.3714 H       1  UNL1        0.0473
     21 H           0.3023   -3.5497   -1.4242 H       1  UNL1        0.0473
     22 H          -0.1299    1.9787    0.1011 H       1  UNL1        0.0632
     23 H          -3.2923    4.0934   -0.3431 H       1  UNL1        0.1081
     24 H          -4.3987    2.0716   -0.8720 H       1  UNL1        0.0625
     25 H          -4.5042   -0.4139   -1.2261 H       1  UNL1        0.0640
     26 H           2.3203   -2.0360   -1.3164 H       1  UNL1        0.0656
     27 H           4.5034   -1.0642   -0.0206 H       1  UNL1        0.0652
     28 H           3.2976    0.7489    3.0720 H       1  UNL1        0.0308
     29 H           4.7378    0.8572    2.0447 H       1  UNL1        0.0308
     30 H           3.4247    2.0319    1.8512 H       1  UNL1        0.0308
@<TRIPOS>BOND
     1     1     2    1
     2     2     3   ar
     3     3     4   ar
     4     4     5   ar
     5     5     6   ar
     6     6     7   ar
     7     7     8    1
     8     8     9    2
     9     7    10   ar
    10    10    11   ar
    11     5    12   ar
    12    12    13    1
    13    13    14   ar
    14    14    15   ar
    15    15    16   ar
    16    16    17   ar
    17    16    18    1
    18    12     2   ar
    19    11     4   ar
    20    17    13   ar
    21     1    19    1
    22     1    20    1
    23     1    21    1
    24     6    22    1
    25     8    23    1
    26    10    24    1
    27    11    25    1
    28    14    26    1
    29    15    27    1
    30    18    28    1
    31    18    29    1
    32    18    30    1
