@<TRIPOS>MOLECULE
*****
 31 33 0 0 0
SMALL
GASTEIGER

@<TRIPOS>ATOM
      1 C          -0.2750   -2.8625    1.1538 C.3     1  UNL1        0.0310
      2 N          -0.9235   -1.5981    0.8828 N.ar    1  UNL1       -0.2626
      3 N          -2.2235   -1.4609    1.2249 N.ar    1  UNL1       -0.1708
      4 C          -2.5493   -0.2155    0.8560 C.ar    1  UNL1        0.0935
      5 C          -1.4007    0.4240    0.2527 C.ar    1  UNL1        0.0313
      6 C          -1.3469    1.7351   -0.2283 C.ar    1  UNL1       -0.0401
      7 C          -2.5885    2.3926   -0.0764 C.ar    1  UNL1        0.0149
      8 C          -2.6789    3.7947   -0.5441 C.2     1  UNL1        0.1502
      9 O          -3.7139    4.4444   -0.4691 O.2     1  UNL1       -0.2957
     10 C          -3.7504    1.7878    0.5014 C.ar    1  UNL1       -0.0494
     11 C          -3.7720    0.4636    0.9903 C.ar    1  UNL1       -0.0333
     12 C          -0.3742   -0.4940    0.2683 C.ar    1  UNL1        0.1113
     13 C           0.9772   -0.4401   -0.2013 C.ar    1  UNL1        0.1537
     14 C           1.4904    0.1797   -1.3288 C.ar    1  UNL1       -0.0140
     15 C           2.8855   -0.0615   -1.3491 C.ar    1  UNL1       -0.0177
     16 C           3.1571   -0.8255   -0.2381 C.ar    1  UNL1        0.1310
     17 O           2.0082   -1.0628    0.4553 O.2     1  UNL1       -0.4558
     18 C           4.3964   -1.4015    0.3289 C.3     1  UNL1        0.1019
     19 O           4.6884   -0.6946    1.5270 O.3     1  UNL1       -0.3873
     20 H           0.2308   -3.2034    0.2473 H       1  UNL1        0.0473
     21 H           0.4357   -2.7148    1.9705 H       1  UNL1        0.0473
     22 H          -1.0265   -3.6009    1.4465 H       1  UNL1        0.0473
     23 H          -0.4718    2.2074   -0.6505 H       1  UNL1        0.0632
     24 H          -1.7601    4.2318   -0.9700 H       1  UNL1        0.1081
     25 H          -4.6663    2.3769    0.5765 H       1  UNL1        0.0625
     26 H          -4.6473    0.0101    1.4348 H       1  UNL1        0.0640
     27 H           0.9227    0.7339   -2.0630 H       1  UNL1        0.0656
     28 H           3.6040    0.2796   -2.0818 H       1  UNL1        0.0653
     29 H           5.2417   -1.2906   -0.3559 H       1  UNL1        0.0638
     30 H           4.2702   -2.4625    0.5639 H       1  UNL1        0.0638
     31 H           3.8602   -0.6725    2.0395 H       1  UNL1        0.2100
@<TRIPOS>BOND
     1     1     2    1
     2     2     3   ar
     3     3     4   ar
     4     4     5   ar
     5     5     6   ar
     6     6     7   ar
     7     7     8    1
     8     8     9    2
     9     7    10   ar
    10    10    11   ar
    11     5    12   ar
    12    12    13    1
    13    13    14   ar
    14    14    15   ar
    15    15    16   ar
    16    16    17   ar
    17    16    18    1
    18    18    19    1
    19    12     2   ar
    20    11     4   ar
    21    17    13   ar
    22     1    20    1
    23     1    21    1
    24     1    22    1
    25     6    23    1
    26     8    24    1
    27    10    25    1
    28    11    26    1
    29    14    27    1
    30    15    28    1
    31    18    29    1
    32    18    30    1
    33    19    31    1
