@<TRIPOS>MOLECULE
*****
 39 44 0 0 0
SMALL
GASTEIGER

@<TRIPOS>ATOM
      1 SI         -4.4168   -0.7329    2.5668 Si      1  UNL1        0.0000
      2 C          -5.9482   -0.0717    1.7165 C.2     1  UNL1        0.0000
      3 C          -5.6858    0.5390    0.5478 C.2     1  UNL1        0.0000
      4 C          -4.2628    0.5424    0.2126 C.ar    1  UNL1        0.0000
      5 C          -3.3491   -0.0704    1.1149 C.ar    1  UNL1        0.0000
      6 C          -1.9215   -0.1481    0.9225 C.ar    1  UNL1        0.0000
      7 C          -1.0924   -0.7395    1.8754 C.ar    1  UNL1        0.0000
      8 N           0.2498   -0.8734    1.7927 N.ar    1  UNL1        0.0000
      9 C           0.8675   -0.4469    0.6905 C.ar    1  UNL1        0.0000
     10 C           2.2364   -0.6482    0.6382 C.ar    1  UNL1        0.0000
     11 C           2.9652   -0.2826   -0.4828 C.ar    1  UNL1        0.0000
     12 N           2.3482    0.2707   -1.5448 N.ar    1  UNL1        0.0000
     13 C           1.0075    0.4616   -1.4745 C.ar    1  UNL1        0.0000
     14 C           0.1882    0.1613   -0.3765 C.ar    1  UNL1        0.0000
     15 C          -1.2516    0.3714   -0.2424 C.ar    1  UNL1        0.0000
     16 C          -2.1968    1.0474   -1.1170 C.ar    1  UNL1        0.0000
     17 C          -1.8740    1.7916   -2.2302 C.ar    1  UNL1        0.0000
     18 S          -3.2481    2.4330   -3.0407 S.2     1  UNL1        0.0000
     19 C          -4.3146    1.7960   -1.8676 C.ar    1  UNL1        0.0000
     20 C          -3.6361    1.1091   -0.8889 C.ar    1  UNL1        0.0000
     21 C           4.4221   -0.4679   -0.6083 C.ar    1  UNL1        0.0000
     22 C           5.1443   -1.4314    0.1131 C.ar    1  UNL1        0.0000
     23 C           6.5258   -1.5549   -0.0458 C.ar    1  UNL1        0.0000
     24 C           7.1650   -0.7076   -0.9319 C.ar    1  UNL1        0.0000
     25 N           6.5242    0.2302   -1.6550 N.ar    1  UNL1        0.0000
     26 C           5.1795    0.3204   -1.4797 C.ar    1  UNL1        0.0000
     27 H          -4.1060   -0.0274    3.8336 H       1  UNL1        0.0000
     28 H          -4.3843   -2.2141    2.6320 H       1  UNL1        0.0000
     29 H          -6.9234   -0.1937    2.1633 H       1  UNL1        0.0000
     30 H          -6.4404    0.9839   -0.0852 H       1  UNL1        0.0000
     31 H          -1.4854   -1.1493    2.8024 H       1  UNL1        0.0000
     32 H           2.7220   -1.0929    1.5006 H       1  UNL1        0.0000
     33 H           0.6122    0.8473   -2.4032 H       1  UNL1        0.0000
     34 H          -0.9212    2.0517   -2.6550 H       1  UNL1        0.0000
     35 H          -5.3749    1.9838   -1.9612 H       1  UNL1        0.0000
     36 H           4.6442   -2.1125    0.7965 H       1  UNL1        0.0000
     37 H           7.0869   -2.2999    0.5074 H       1  UNL1        0.0000
     38 H           8.2378   -0.7646   -1.0905 H       1  UNL1        0.0000
     39 H           4.7065    1.0891   -2.0882 H       1  UNL1        0.0000
@<TRIPOS>BOND
     1     1     2    1
     2     2     3    2
     3     3     4    1
     4     4     5   ar
     5     5     6   ar
     6     6     7   ar
     7     7     8   ar
     8     8     9   ar
     9     9    10   ar
    10    10    11   ar
    11    11    12   ar
    12    12    13   ar
    13    13    14   ar
    14    14    15   ar
    15    15    16   ar
    16    16    17   ar
    17    17    18   ar
    18    18    19   ar
    19    19    20   ar
    20    11    21    1
    21    21    22   ar
    22    22    23   ar
    23    23    24   ar
    24    24    25   ar
    25    25    26   ar
    26     5     1    1
    27    15     6   ar
    28    20    16   ar
    29    26    21   ar
    30    20     4   ar
    31    14     9   ar
    32     1    27    1
    33     1    28    1
    34     2    29    1
    35     3    30    1
    36     7    31    1
    37    10    32    1
    38    13    33    1
    39    17    34    1
    40    19    35    1
    41    22    36    1
    42    23    37    1
    43    24    38    1
    44    26    39    1
