@<TRIPOS>MOLECULE
*****
 33 36 0 0 0
SMALL
GASTEIGER

@<TRIPOS>ATOM
      1 C          -0.3208   -3.0177   -1.1988 C.3     1  UNL1        0.0310
      2 N          -1.1510   -1.9073   -0.7851 N.ar    1  UNL1       -0.2626
      3 N          -2.4913   -2.0289   -0.9189 N.ar    1  UNL1       -0.1708
      4 C          -2.9889   -0.8692   -0.4726 C.ar    1  UNL1        0.0935
      5 C          -1.9055   -0.0037   -0.0633 C.ar    1  UNL1        0.0313
      6 C          -2.0414    1.2763    0.4785 C.ar    1  UNL1       -0.0401
      7 C          -3.3979    1.6637    0.5695 C.ar    1  UNL1        0.0149
      8 C          -3.7088    3.0034    1.1178 C.2     1  UNL1        0.1502
      9 O          -2.8321    3.7861    1.4625 O.2     1  UNL1       -0.2957
     10 C          -4.4956    0.8403    0.1642 C.ar    1  UNL1       -0.0494
     11 C          -4.3289   -0.4566   -0.3691 C.ar    1  UNL1       -0.0333
     12 C          -0.7328   -0.6905   -0.2893 C.ar    1  UNL1        0.1113
     13 C           0.6455   -0.3450   -0.0978 C.ar    1  UNL1        0.1546
     14 C           1.2631    0.8930   -0.1885 C.ar    1  UNL1       -0.0065
     15 C           2.6433    0.7075    0.0844 C.ar    1  UNL1        0.0208
     16 C           2.7956   -0.6496    0.3211 C.ar    1  UNL1        0.1358
     17 O           1.6000   -1.2844    0.2050 O.2     1  UNL1       -0.4533
     18 C           4.0093   -1.2594    0.6287 C.ar    1  UNL1       -0.0187
     19 C           5.1274   -0.4213    0.6949 C.ar    1  UNL1       -0.0582
     20 C           5.0156    0.9523    0.4610 C.ar    1  UNL1       -0.0610
     21 C           3.7775    1.5350    0.1529 C.ar    1  UNL1       -0.0510
     22 H           0.4578   -2.6475   -1.8701 H       1  UNL1        0.0473
     23 H           0.1103   -3.4756   -0.3055 H       1  UNL1        0.0473
     24 H          -0.9341   -3.7514   -1.7294 H       1  UNL1        0.0473
     25 H          -1.2333    1.9130    0.8115 H       1  UNL1        0.0632
     26 H          -4.7762    3.2686    1.1991 H       1  UNL1        0.1081
     27 H          -5.5137    1.2153    0.2689 H       1  UNL1        0.0625
     28 H          -5.1546   -1.0866   -0.6710 H       1  UNL1        0.0640
     29 H           0.7811    1.8279   -0.4360 H       1  UNL1        0.0662
     30 H           4.0774   -2.3252    0.8076 H       1  UNL1        0.0654
     31 H           6.1000   -0.8471    0.9332 H       1  UNL1        0.0619
     32 H           5.9018    1.5810    0.5196 H       1  UNL1        0.0618
     33 H           3.7013    2.6034   -0.0260 H       1  UNL1        0.0625
@<TRIPOS>BOND
     1     1     2    1
     2     2     3   ar
     3     3     4   ar
     4     4     5   ar
     5     5     6   ar
     6     6     7   ar
     7     7     8    1
     8     8     9    2
     9     7    10   ar
    10    10    11   ar
    11     5    12   ar
    12    12    13    1
    13    13    14   ar
    14    14    15   ar
    15    15    16   ar
    16    16    17   ar
    17    16    18   ar
    18    18    19   ar
    19    19    20   ar
    20    20    21   ar
    21    12     2   ar
    22    11     4   ar
    23    17    13   ar
    24    21    15   ar
    25     1    22    1
    26     1    23    1
    27     1    24    1
    28     6    25    1
    29     8    26    1
    30    10    27    1
    31    11    28    1
    32    14    29    1
    33    18    30    1
    34    19    31    1
    35    20    32    1
    36    21    33    1
