@<TRIPOS>MOLECULE
*****
 36 38 0 0 0
SMALL
GASTEIGER

@<TRIPOS>ATOM
      1 C           2.7785   -0.1345    2.4602 C.3     1  UNL1        0.0310
      2 N           1.4261    0.0264    1.9734 N.ar    1  UNL1       -0.2626
      3 N           0.4463    0.2564    2.8759 N.ar    1  UNL1       -0.1708
      4 C          -0.6732    0.3607    2.1464 C.ar    1  UNL1        0.0936
      5 C          -0.3618    0.1701    0.7521 C.ar    1  UNL1        0.0324
      6 C          -1.2745    0.2365   -0.3078 C.ar    1  UNL1       -0.0293
      7 C          -2.6070    0.4865    0.1083 C.ar    1  UNL1        0.0300
      8 N          -3.6737    0.5871   -0.8192 N.pl3   1  UNL1       -0.3360
      9 C          -4.6904   -0.4545   -0.6332 C.3     1  UNL1        0.0004
     10 C          -3.3336    0.8511   -2.2167 C.3     1  UNL1        0.0004
     11 C          -2.9202    0.6740    1.5037 C.ar    1  UNL1       -0.0386
     12 C          -1.9853    0.6192    2.5637 C.ar    1  UNL1       -0.0322
     13 C           0.9932   -0.0653    0.6687 C.ar    1  UNL1        0.1113
     14 C           1.8623   -0.3470   -0.4347 C.ar    1  UNL1        0.1535
     15 C           1.6075   -1.0587   -1.5959 C.ar    1  UNL1       -0.0141
     16 C           2.7964   -1.0595   -2.3652 C.ar    1  UNL1       -0.0203
     17 C           3.7230   -0.3557   -1.6332 C.ar    1  UNL1        0.1028
     18 O           3.1700    0.0684   -0.4658 O.2     1  UNL1       -0.4584
     19 C           5.1355    0.0081   -1.8564 C.3     1  UNL1       -0.0063
     20 H           2.7662   -0.2024    3.5517 H       1  UNL1        0.0473
     21 H           3.1969   -1.0557    2.0476 H       1  UNL1        0.0473
     22 H           3.3604    0.7373    2.1524 H       1  UNL1        0.0473
     23 H          -0.9921    0.1088   -1.3404 H       1  UNL1        0.0643
     24 H          -5.5124   -0.3106   -1.3437 H       1  UNL1        0.0428
     25 H          -4.2671   -1.4510   -0.8050 H       1  UNL1        0.0428
     26 H          -5.1360   -0.4265    0.3663 H       1  UNL1        0.0428
     27 H          -4.2388    1.1139   -2.7756 H       1  UNL1        0.0428
     28 H          -2.8882   -0.0271   -2.6975 H       1  UNL1        0.0428
     29 H          -2.6508    1.7035   -2.3057 H       1  UNL1        0.0428
     30 H          -3.9510    0.9097    1.7700 H       1  UNL1        0.0637
     31 H          -2.2526    0.7777    3.5983 H       1  UNL1        0.0640
     32 H           0.6736   -1.5378   -1.8532 H       1  UNL1        0.0656
     33 H           2.9573   -1.5213   -3.3293 H       1  UNL1        0.0652
     34 H           5.7673   -0.4074   -1.0653 H       1  UNL1        0.0308
     35 H           5.4935   -0.3766   -2.8163 H       1  UNL1        0.0308
     36 H           5.2547    1.0959   -1.8591 H       1  UNL1        0.0308
@<TRIPOS>BOND
     1     1     2    1
     2     2     3   ar
     3     3     4   ar
     4     4     5   ar
     5     5     6   ar
     6     6     7   ar
     7     7     8    1
     8     8     9    1
     9     8    10    1
    10     7    11   ar
    11    11    12   ar
    12     5    13   ar
    13    13    14    1
    14    14    15   ar
    15    15    16   ar
    16    16    17   ar
    17    17    18   ar
    18    17    19    1
    19    13     2   ar
    20    12     4   ar
    21    18    14   ar
    22     1    20    1
    23     1    21    1
    24     1    22    1
    25     6    23    1
    26     9    24    1
    27     9    25    1
    28     9    26    1
    29    10    27    1
    30    10    28    1
    31    10    29    1
    32    11    30    1
    33    12    31    1
    34    15    32    1
    35    16    33    1
    36    19    34    1
    37    19    35    1
    38    19    36    1
