@<TRIPOS>MOLECULE
*****
 38 40 0 0 0
SMALL
GASTEIGER

@<TRIPOS>ATOM
      1 C           2.3636   -1.2979   -2.5913 C.3     1  UNL1        0.0310
      2 N           1.0347   -1.1319   -2.0428 N.ar    1  UNL1       -0.2626
      3 N          -0.0033   -1.6750   -2.7175 N.ar    1  UNL1       -0.1708
      4 C          -1.0820   -1.3842   -1.9788 C.ar    1  UNL1        0.0936
      5 C          -0.6876   -0.6105   -0.8293 C.ar    1  UNL1        0.0324
      6 C          -1.5483   -0.1527    0.1738 C.ar    1  UNL1       -0.0293
      7 C          -2.9121   -0.4955   -0.0370 C.ar    1  UNL1        0.0300
      8 N          -3.8502   -0.0711    0.9358 N.pl3   1  UNL1       -0.3360
      9 C          -5.1293   -0.7759    1.0055 C.3     1  UNL1        0.0004
     10 C          -3.9609    1.3891    1.0206 C.3     1  UNL1        0.0004
     11 C          -3.3075   -1.2625   -1.1875 C.ar    1  UNL1       -0.0386
     12 C          -2.4237   -1.7299   -2.1902 C.ar    1  UNL1       -0.0322
     13 C           0.6786   -0.4416   -0.9022 C.ar    1  UNL1        0.1113
     14 C           1.6195    0.2489   -0.0692 C.ar    1  UNL1        0.1542
     15 C           1.4372    1.3510    0.7485 C.ar    1  UNL1       -0.0136
     16 C           2.6848    1.6453    1.3534 C.ar    1  UNL1       -0.0123
     17 C           3.5846    0.7191    0.8675 C.ar    1  UNL1        0.1705
     18 O           2.9374   -0.1189    0.0054 O.2     1  UNL1       -0.4504
     19 C           4.9998    0.5021    1.0930 C.2     1  UNL1        0.1949
     20 C           5.6682    1.4150    2.0921 C.3     1  UNL1        0.0017
     21 O           5.6577   -0.3641    0.5158 O.2     1  UNL1       -0.2891
     22 H           2.8349   -0.3161   -2.6792 H       1  UNL1        0.0473
     23 H           2.2927   -1.7528   -3.5834 H       1  UNL1        0.0473
     24 H           2.9307   -1.9542   -1.9271 H       1  UNL1        0.0473
     25 H          -1.2292    0.3730    1.0614 H       1  UNL1        0.0643
     26 H          -5.7829   -0.5127    0.1665 H       1  UNL1        0.0428
     27 H          -4.9847   -1.8618    1.0320 H       1  UNL1        0.0428
     28 H          -5.6508   -0.5058    1.9307 H       1  UNL1        0.0428
     29 H          -4.6591    1.6694    1.8176 H       1  UNL1        0.0428
     30 H          -4.3358    1.8097    0.0803 H       1  UNL1        0.0428
     31 H          -3.0044    1.8630    1.2643 H       1  UNL1        0.0428
     32 H          -4.3577   -1.5079   -1.3316 H       1  UNL1        0.0637
     33 H          -2.7500   -2.3070   -3.0437 H       1  UNL1        0.0640
     34 H           0.5132    1.8946    0.8860 H       1  UNL1        0.0656
     35 H           2.8948    2.4456    2.0494 H       1  UNL1        0.0656
     36 H           5.1916    1.3143    3.0711 H       1  UNL1        0.0310
     37 H           6.7222    1.1384    2.1919 H       1  UNL1        0.0310
     38 H           5.6134    2.4515    1.7483 H       1  UNL1        0.0310
@<TRIPOS>BOND
     1     1     2    1
     2     2     3   ar
     3     3     4   ar
     4     4     5   ar
     5     5     6   ar
     6     6     7   ar
     7     7     8    1
     8     8     9    1
     9     8    10    1
    10     7    11   ar
    11    11    12   ar
    12     5    13   ar
    13    13    14    1
    14    14    15   ar
    15    15    16   ar
    16    16    17   ar
    17    17    18   ar
    18    17    19    1
    19    19    20    1
    20    19    21    2
    21    13     2   ar
    22    12     4   ar
    23    18    14   ar
    24     1    22    1
    25     1    23    1
    26     1    24    1
    27     6    25    1
    28     9    26    1
    29     9    27    1
    30     9    28    1
    31    10    29    1
    32    10    30    1
    33    10    31    1
    34    11    32    1
    35    12    33    1
    36    15    34    1
    37    16    35    1
    38    20    36    1
    39    20    37    1
    40    20    38    1
