@<TRIPOS>MOLECULE
*****
 42 44 0 0 0
SMALL
GASTEIGER

@<TRIPOS>ATOM
      1 C           0.7419    2.5062   -2.5599 C.3     1  UNL1        0.0310
      2 N          -0.4108    1.9744   -1.8657 N.ar    1  UNL1       -0.2626
      3 N          -1.6296    2.4580   -2.1947 N.ar    1  UNL1       -0.1708
      4 C          -2.4869    1.7822   -1.4184 C.ar    1  UNL1        0.0936
      5 C          -1.7594    0.8765   -0.5673 C.ar    1  UNL1        0.0324
      6 C          -2.3314   -0.0085    0.3535 C.ar    1  UNL1       -0.0293
      7 C          -3.7501    0.0648    0.4232 C.ar    1  UNL1        0.0300
      8 N          -4.4160   -0.8019    1.3234 N.pl3   1  UNL1       -0.3360
      9 C          -5.8541   -1.0064    1.1559 C.3     1  UNL1        0.0004
     10 C          -3.9824   -0.6492    2.7173 C.3     1  UNL1        0.0004
     11 C          -4.4749    0.9742   -0.4252 C.ar    1  UNL1       -0.0386
     12 C          -3.8848    1.8566   -1.3632 C.ar    1  UNL1       -0.0322
     13 C          -0.4207    1.0336   -0.8567 C.ar    1  UNL1        0.1113
     14 C           0.7663    0.4329   -0.3216 C.ar    1  UNL1        0.1544
     15 C           1.0102   -0.0631    0.9478 C.ar    1  UNL1       -0.0135
     16 C           2.3429   -0.5426    0.9687 C.ar    1  UNL1       -0.0086
     17 C           2.8663   -0.3088   -0.2871 C.ar    1  UNL1        0.2121
     18 O           1.9108    0.2876   -1.0620 O.2     1  UNL1       -0.4467
     19 C           4.1605   -0.5636   -0.8734 C.2     1  UNL1        0.3749
     20 O           4.9626   -1.1880    0.0400 O.3     1  UNL1       -0.4593
     21 C           6.2772   -1.4875   -0.4432 C.3     1  UNL1        0.0901
     22 C           7.0439   -2.1757    0.6689 C.3     1  UNL1       -0.0306
     23 O           4.5083   -0.2687   -2.0106 O.2     1  UNL1       -0.2415
     24 H           1.1659    1.7134   -3.1811 H       1  UNL1        0.0473
     25 H           0.4311    3.3418   -3.1940 H       1  UNL1        0.0473
     26 H           1.4647    2.8633   -1.8219 H       1  UNL1        0.0473
     27 H          -1.7692   -0.7269    0.9312 H       1  UNL1        0.0643
     28 H          -6.1022   -1.2631    0.1197 H       1  UNL1        0.0428
     29 H          -6.4249   -0.1228    1.4642 H       1  UNL1        0.0428
     30 H          -6.1859   -1.8495    1.7727 H       1  UNL1        0.0428
     31 H          -4.1507    0.3761    3.0731 H       1  UNL1        0.0428
     32 H          -4.5472   -1.3280    3.3678 H       1  UNL1        0.0428
     33 H          -2.9243   -0.9056    2.8506 H       1  UNL1        0.0428
     34 H          -5.5600    1.0198   -0.3580 H       1  UNL1        0.0637
     35 H          -4.4592    2.5264   -1.9874 H       1  UNL1        0.0640
     36 H           0.3128   -0.0681    1.7736 H       1  UNL1        0.0656
     37 H           2.8653   -0.9966    1.7998 H       1  UNL1        0.0658
     38 H           6.7884   -0.5603   -0.7247 H       1  UNL1        0.0695
     39 H           6.2104   -2.1520   -1.3120 H       1  UNL1        0.0695
     40 H           6.5321   -3.0918    0.9806 H       1  UNL1        0.0262
     41 H           7.1056   -1.5299    1.5508 H       1  UNL1        0.0262
     42 H           8.0574   -2.4290    0.3455 H       1  UNL1        0.0262
@<TRIPOS>BOND
     1     1     2    1
     2     2     3   ar
     3     3     4   ar
     4     4     5   ar
     5     5     6   ar
     6     6     7   ar
     7     7     8    1
     8     8     9    1
     9     8    10    1
    10     7    11   ar
    11    11    12   ar
    12     5    13   ar
    13    13    14    1
    14    14    15   ar
    15    15    16   ar
    16    16    17   ar
    17    17    18   ar
    18    17    19    1
    19    19    20    1
    20    20    21    1
    21    21    22    1
    22    19    23    2
    23    13     2   ar
    24    12     4   ar
    25    18    14   ar
    26     1    24    1
    27     1    25    1
    28     1    26    1
    29     6    27    1
    30     9    28    1
    31     9    29    1
    32     9    30    1
    33    10    31    1
    34    10    32    1
    35    10    33    1
    36    11    34    1
    37    12    35    1
    38    15    36    1
    39    16    37    1
    40    21    38    1
    41    21    39    1
    42    22    40    1
    43    22    41    1
    44    22    42    1
