@<TRIPOS>MOLECULE
*****
 35 37 0 0 0
SMALL
GASTEIGER

@<TRIPOS>ATOM
      1 C           2.8063   -1.6327   -2.5231 C.3     1  UNL1        0.0310
      2 N           1.5144   -1.4344   -1.9051 N.ar    1  UNL1       -0.2626
      3 N           0.4409   -2.0108   -2.4897 N.ar    1  UNL1       -0.1708
      4 C          -0.6098   -1.5920   -1.7693 C.ar    1  UNL1        0.0936
      5 C          -0.1510   -0.7462   -0.6993 C.ar    1  UNL1        0.0324
      6 C          -0.9518   -0.1305    0.2687 C.ar    1  UNL1       -0.0293
      7 C          -2.3345   -0.3958    0.1034 C.ar    1  UNL1        0.0300
      8 N          -3.3093    0.1383    0.9830 N.pl3   1  UNL1       -0.3360
      9 C          -4.2516    1.0384    0.3083 C.3     1  UNL1        0.0004
     10 C          -2.8511    0.6192    2.2860 C.3     1  UNL1        0.0004
     11 C          -2.7985   -1.2494   -0.9645 C.ar    1  UNL1       -0.0386
     12 C          -1.9727   -1.8710   -1.9313 C.ar    1  UNL1       -0.0322
     13 C           1.2210   -0.6797   -0.7919 C.ar    1  UNL1        0.1113
     14 C           2.1776    0.0104    0.0190 C.ar    1  UNL1        0.1542
     15 C           3.4138   -0.4152    0.4777 C.ar    1  UNL1       -0.0136
     16 C           3.9646    0.6387    1.2464 C.ar    1  UNL1       -0.0126
     17 C           3.0362    1.6557    1.2296 C.ar    1  UNL1        0.1676
     18 O           1.9518    1.2766    0.4960 O.2     1  UNL1       -0.4507
     19 C           3.0342    2.9618    1.8289 C.2     1  UNL1        0.1851
     20 O           3.9428    3.4224    2.5158 O.2     1  UNL1       -0.2924
     21 H           3.3363   -2.4076   -1.9647 H       1  UNL1        0.0473
     22 H           3.3597   -0.6908   -2.5118 H       1  UNL1        0.0473
     23 H           2.6660   -1.9510   -3.5599 H       1  UNL1        0.0473
     24 H          -0.5501    0.4954    1.0505 H       1  UNL1        0.0643
     25 H          -5.0061    1.3959    1.0184 H       1  UNL1        0.0428
     26 H          -3.7338    1.9133   -0.1019 H       1  UNL1        0.0428
     27 H          -4.7977    0.5393   -0.4987 H       1  UNL1        0.0428
     28 H          -2.2329   -0.1309    2.7920 H       1  UNL1        0.0428
     29 H          -2.2907    1.5567    2.1973 H       1  UNL1        0.0428
     30 H          -3.7130    0.8063    2.9363 H       1  UNL1        0.0428
     31 H          -3.8666   -1.4617   -1.0220 H       1  UNL1        0.0637
     32 H          -2.3546   -2.5109   -2.7134 H       1  UNL1        0.0640
     33 H           3.8635   -1.3814    0.2958 H       1  UNL1        0.0656
     34 H           4.9164    0.6603    1.7607 H       1  UNL1        0.0656
     35 H           2.1303    3.5633    1.6327 H       1  UNL1        0.1114
@<TRIPOS>BOND
     1     1     2    1
     2     2     3   ar
     3     3     4   ar
     4     4     5   ar
     5     5     6   ar
     6     6     7   ar
     7     7     8    1
     8     8     9    1
     9     8    10    1
    10     7    11   ar
    11    11    12   ar
    12     5    13   ar
    13    13    14    1
    14    14    15   ar
    15    15    16   ar
    16    16    17   ar
    17    17    18   ar
    18    17    19    1
    19    19    20    2
    20    13     2   ar
    21    12     4   ar
    22    18    14   ar
    23     1    21    1
    24     1    22    1
    25     1    23    1
    26     6    24    1
    27     9    25    1
    28     9    26    1
    29     9    27    1
    30    10    28    1
    31    10    29    1
    32    10    30    1
    33    11    31    1
    34    12    32    1
    35    15    33    1
    36    16    34    1
    37    19    35    1
