@<TRIPOS>MOLECULE
*****
 37 39 0 0 0
SMALL
GASTEIGER

@<TRIPOS>ATOM
      1 C           2.1929    3.1095    0.4143 C.3     1  UNL1        0.0310
      2 N           0.9206    2.4232    0.4728 N.ar    1  UNL1       -0.2626
      3 N          -0.1785    3.1433    0.7899 N.ar    1  UNL1       -0.1708
      4 C          -1.1862    2.2603    0.7637 C.ar    1  UNL1        0.0936
      5 C          -0.6759    0.9532    0.4342 C.ar    1  UNL1        0.0324
      6 C          -1.4403   -0.2108    0.2858 C.ar    1  UNL1       -0.0293
      7 C          -2.8270   -0.0095    0.5055 C.ar    1  UNL1        0.0300
      8 N          -3.7619   -1.0699    0.4016 N.pl3   1  UNL1       -0.3360
      9 C          -3.2470   -2.4370    0.4652 C.3     1  UNL1        0.0004
     10 C          -4.7544   -0.8516   -0.6578 C.3     1  UNL1        0.0004
     11 C          -3.3339    1.2923    0.8643 C.ar    1  UNL1       -0.0386
     12 C          -2.5521    2.4632    0.9992 C.ar    1  UNL1       -0.0322
     13 C           0.6872    1.0792    0.2759 C.ar    1  UNL1        0.1115
     14 C           1.7212    0.1324   -0.0200 C.ar    1  UNL1        0.1575
     15 C           1.8190   -1.2035    0.3340 C.ar    1  UNL1       -0.0105
     16 C           3.0404   -1.6936   -0.1917 C.ar    1  UNL1        0.0222
     17 C           3.6326   -0.6301   -0.8317 C.ar    1  UNL1        0.2866
     18 O           4.7567   -0.4113   -1.5053 O.3     1  UNL1       -0.4673
     19 C           5.6075   -1.5393   -1.6496 C.3     1  UNL1        0.0819
     20 O           2.8467    0.4714   -0.7265 O.2     1  UNL1       -0.4233
     21 H           2.5149    3.1478   -0.6289 H       1  UNL1        0.0473
     22 H           2.9148    2.5709    1.0329 H       1  UNL1        0.0473
     23 H           2.0754    4.1258    0.8008 H       1  UNL1        0.0473
     24 H          -1.0213   -1.1606   -0.0046 H       1  UNL1        0.0643
     25 H          -2.5897   -2.5746    1.3312 H       1  UNL1        0.0428
     26 H          -4.0778   -3.1412    0.5866 H       1  UNL1        0.0428
     27 H          -2.7095   -2.7100   -0.4498 H       1  UNL1        0.0428
     28 H          -4.2735   -0.7988   -1.6415 H       1  UNL1        0.0428
     29 H          -5.4727   -1.6793   -0.6783 H       1  UNL1        0.0428
     30 H          -5.3383    0.0606   -0.4989 H       1  UNL1        0.0428
     31 H          -4.4004    1.3886    1.0699 H       1  UNL1        0.0637
     32 H          -2.9662    3.4251    1.2644 H       1  UNL1        0.0640
     33 H           1.1008   -1.7584    0.9208 H       1  UNL1        0.0657
     34 H           3.4360   -2.6943   -0.1016 H       1  UNL1        0.0689
     35 H           6.4879   -1.2304   -2.2209 H       1  UNL1        0.0661
     36 H           5.9459   -1.9023   -0.6731 H       1  UNL1        0.0661
     37 H           5.1062   -2.3402   -2.2038 H       1  UNL1        0.0661
@<TRIPOS>BOND
     1     1     2    1
     2     2     3   ar
     3     3     4   ar
     4     4     5   ar
     5     5     6   ar
     6     6     7   ar
     7     7     8    1
     8     8     9    1
     9     8    10    1
    10     7    11   ar
    11    11    12   ar
    12     5    13   ar
    13    13    14    1
    14    14    15   ar
    15    15    16   ar
    16    16    17   ar
    17    17    18    1
    18    18    19    1
    19    17    20   ar
    20    13     2   ar
    21    12     4   ar
    22    20    14   ar
    23     1    21    1
    24     1    22    1
    25     1    23    1
    26     6    24    1
    27     9    25    1
    28     9    26    1
    29     9    27    1
    30    10    28    1
    31    10    29    1
    32    10    30    1
    33    11    31    1
    34    12    32    1
    35    15    33    1
    36    16    34    1
    37    19    35    1
    38    19    36    1
    39    19    37    1
