@<TRIPOS>MOLECULE
*****
 36 38 0 0 0
SMALL
GASTEIGER

@<TRIPOS>ATOM
      1 C           2.2818    2.0435   -2.7869 C.3     1  UNL1        0.0309
      2 N           1.0259    1.5822   -2.2403 N.ar    1  UNL1       -0.2651
      3 N          -0.1154    1.8676   -2.9058 N.ar    1  UNL1       -0.1709
      4 C          -1.0872    1.2912   -2.1804 C.ar    1  UNL1        0.0935
      5 C          -0.5108    0.6427   -1.0317 C.ar    1  UNL1        0.0298
      6 C          -1.2017   -0.0563   -0.0375 C.ar    1  UNL1       -0.0294
      7 C          -2.6015   -0.1035   -0.2593 C.ar    1  UNL1        0.0300
      8 N          -3.4777   -0.7711    0.6341 N.pl3   1  UNL1       -0.3360
      9 C          -2.9631   -1.1002    1.9639 C.3     1  UNL1        0.0004
     10 C          -4.2194   -1.8651   -0.0067 C.3     1  UNL1        0.0004
     11 C          -3.1882    0.5576   -1.4027 C.ar    1  UNL1       -0.0386
     12 C          -2.4707    1.2654   -2.3976 C.ar    1  UNL1       -0.0322
     13 C           0.8459    0.8562   -1.0864 C.ar    1  UNL1        0.0829
     14 C           1.9039    0.4686   -0.2057 C.ar    1  UNL1        0.0380
     15 C           2.5897    1.2813    0.6711 C.ar    1  UNL1       -0.0452
     16 C           3.5927    0.5690    1.3915 C.ar    1  UNL1       -0.0512
     17 C           3.6350   -0.7654    1.0444 C.ar    1  UNL1       -0.0126
     18 S           2.4677   -1.1432   -0.1492 S.2     1  UNL1       -0.0919
     19 C           4.5325   -1.8326    1.5685 C.3     1  UNL1       -0.0334
     20 H           2.1211    2.4241   -3.7994 H       1  UNL1        0.0473
     21 H           2.9798    1.2043   -2.8218 H       1  UNL1        0.0473
     22 H           2.6624    2.8417   -2.1462 H       1  UNL1        0.0473
     23 H          -0.7058   -0.5241    0.7995 H       1  UNL1        0.0643
     24 H          -3.7835   -1.4351    2.6092 H       1  UNL1        0.0428
     25 H          -2.2232   -1.9073    1.9217 H       1  UNL1        0.0428
     26 H          -2.5225   -0.2217    2.4486 H       1  UNL1        0.0428
     27 H          -4.8481   -1.5142   -0.8312 H       1  UNL1        0.0428
     28 H          -4.8954   -2.3367    0.7153 H       1  UNL1        0.0428
     29 H          -3.5361   -2.6367   -0.3822 H       1  UNL1        0.0428
     30 H          -4.2742    0.5413   -1.5029 H       1  UNL1        0.0637
     31 H          -2.9450    1.7521   -3.2377 H       1  UNL1        0.0640
     32 H           2.3799    2.3363    0.7989 H       1  UNL1        0.0630
     33 H           4.2463    1.0161    2.1313 H       1  UNL1        0.0626
     34 H           3.9514   -2.6728    1.9627 H       1  UNL1        0.0283
     35 H           5.1607   -1.4513    2.3803 H       1  UNL1        0.0283
     36 H           5.1925   -2.2041    0.7776 H       1  UNL1        0.0283
@<TRIPOS>BOND
     1     1     2    1
     2     2     3   ar
     3     3     4   ar
     4     4     5   ar
     5     5     6   ar
     6     6     7   ar
     7     7     8    1
     8     8     9    1
     9     8    10    1
    10     7    11   ar
    11    11    12   ar
    12     5    13   ar
    13    13    14    1
    14    14    15   ar
    15    15    16   ar
    16    16    17   ar
    17    17    18   ar
    18    17    19    1
    19    13     2   ar
    20    12     4   ar
    21    18    14   ar
    22     1    20    1
    23     1    21    1
    24     1    22    1
    25     6    23    1
    26     9    24    1
    27     9    25    1
    28     9    26    1
    29    10    27    1
    30    10    28    1
    31    10    29    1
    32    11    30    1
    33    12    31    1
    34    15    32    1
    35    16    33    1
    36    19    34    1
    37    19    35    1
    38    19    36    1
