@<TRIPOS>MOLECULE
*****
 35 37 0 0 0
SMALL
GASTEIGER

@<TRIPOS>ATOM
      1 C           2.6442    0.1934   -3.0272 C.3     1  UNL1        0.0309
      2 N           1.3659    0.3264   -2.3648 N.ar    1  UNL1       -0.2651
      3 N           0.2956    0.6770   -3.1129 N.ar    1  UNL1       -0.1709
      4 C          -0.7350    0.6920   -2.2550 C.ar    1  UNL1        0.0935
      5 C          -0.2719    0.3313   -0.9412 C.ar    1  UNL1        0.0298
      6 C          -1.0512    0.2465    0.2173 C.ar    1  UNL1       -0.0294
      7 C          -2.4200    0.5390   -0.0072 C.ar    1  UNL1        0.0300
      8 N          -3.3722    0.5091    1.0415 N.pl3   1  UNL1       -0.3360
      9 C          -2.8710    0.5829    2.4132 C.3     1  UNL1        0.0004
     10 C          -4.4196   -0.4973    0.8353 C.3     1  UNL1        0.0004
     11 C          -2.8891    0.9065   -1.3223 C.ar    1  UNL1       -0.0386
     12 C          -2.0833    0.9950   -2.4827 C.ar    1  UNL1       -0.0322
     13 C           1.0819    0.1010   -1.0359 C.ar    1  UNL1        0.0829
     14 C           2.0349   -0.3042   -0.0445 C.ar    1  UNL1        0.0385
     15 C           2.0059   -1.4658    0.7001 C.ar    1  UNL1       -0.0448
     16 C           3.0995   -1.5525    1.6122 C.ar    1  UNL1       -0.0438
     17 C           3.9250   -0.4488    1.5383 C.ar    1  UNL1        0.0520
     18 S           3.3691    0.6777    0.3806 S.2     1  UNL1       -0.0841
     19 C           5.1256   -0.1833    2.3007 C.2     1  UNL1        0.1568
     20 O           5.8545    0.8002    2.1967 O.2     1  UNL1       -0.2952
     21 H           2.4805    0.0414   -4.0977 H       1  UNL1        0.0473
     22 H           3.2105    1.1132   -2.8636 H       1  UNL1        0.0473
     23 H           3.1741   -0.6717   -2.6219 H       1  UNL1        0.0473
     24 H          -0.6458   -0.0232    1.1803 H       1  UNL1        0.0643
     25 H          -2.3833   -0.3504    2.7163 H       1  UNL1        0.0428
     26 H          -2.1728    1.4183    2.5373 H       1  UNL1        0.0428
     27 H          -3.7029    0.7638    3.1032 H       1  UNL1        0.0428
     28 H          -3.9945   -1.5077    0.8168 H       1  UNL1        0.0428
     29 H          -4.9789   -0.3313   -0.0910 H       1  UNL1        0.0428
     30 H          -5.1504   -0.4543    1.6509 H       1  UNL1        0.0428
     31 H          -3.9415    1.1690   -1.4353 H       1  UNL1        0.0637
     32 H          -2.4673    1.2822   -3.4507 H       1  UNL1        0.0640
     33 H           1.2372   -2.2228    0.5929 H       1  UNL1        0.0630
     34 H           3.2637   -2.3867    2.2842 H       1  UNL1        0.0630
     35 H           5.3824   -0.9658    3.0361 H       1  UNL1        0.1087
@<TRIPOS>BOND
     1     1     2    1
     2     2     3   ar
     3     3     4   ar
     4     4     5   ar
     5     5     6   ar
     6     6     7   ar
     7     7     8    1
     8     8     9    1
     9     8    10    1
    10     7    11   ar
    11    11    12   ar
    12     5    13   ar
    13    13    14    1
    14    14    15   ar
    15    15    16   ar
    16    16    17   ar
    17    17    18   ar
    18    17    19    1
    19    19    20    2
    20    13     2   ar
    21    12     4   ar
    22    18    14   ar
    23     1    21    1
    24     1    22    1
    25     1    23    1
    26     6    24    1
    27     9    25    1
    28     9    26    1
    29     9    27    1
    30    10    28    1
    31    10    29    1
    32    10    30    1
    33    11    31    1
    34    12    32    1
    35    15    33    1
    36    16    34    1
    37    19    35    1
