@<TRIPOS>MOLECULE
*****
 32 34 0 0 0
SMALL
GASTEIGER

@<TRIPOS>ATOM
      1 C          -1.5162   -3.3321    0.5367 C.3     1  UNL1        0.0310
      2 N          -0.3637   -2.4791    0.3521 N.ar    1  UNL1       -0.2626
      3 N           0.8603   -3.0283    0.5216 N.ar    1  UNL1       -0.1708
      4 C           1.7173   -2.0047    0.3956 C.ar    1  UNL1        0.0937
      5 C           0.9826   -0.7965    0.1140 C.ar    1  UNL1        0.0341
      6 C           1.5264    0.4752   -0.0927 C.ar    1  UNL1       -0.0086
      7 C           2.9324    0.4698    0.0152 C.ar    1  UNL1        0.1209
      8 O           3.7257    1.5853   -0.1389 O.3     1  UNL1       -0.4951
      9 C           3.0590    2.8161   -0.3916 C.3     1  UNL1        0.0788
     10 C           3.6879   -0.7147    0.2964 C.ar    1  UNL1       -0.0179
     11 C           3.1166   -1.9915    0.4958 C.ar    1  UNL1       -0.0305
     12 C          -0.3509   -1.1342    0.0597 C.ar    1  UNL1        0.1114
     13 C          -1.5056   -0.3285   -0.2014 C.ar    1  UNL1        0.1535
     14 C          -2.6380   -0.6220   -0.9445 C.ar    1  UNL1       -0.0141
     15 C          -3.4811    0.5152   -0.9009 C.ar    1  UNL1       -0.0203
     16 C          -2.8186    1.4511   -0.1423 C.ar    1  UNL1        0.1028
     17 O          -1.6249    0.9522    0.2750 O.2     1  UNL1       -0.4584
     18 C          -3.1334    2.8288    0.2820 C.3     1  UNL1       -0.0063
     19 H          -2.2861   -2.7849    1.0856 H       1  UNL1        0.0473
     20 H          -1.2246   -4.2128    1.1159 H       1  UNL1        0.0473
     21 H          -1.8761   -3.6377   -0.4483 H       1  UNL1        0.0473
     22 H           0.9283    1.3470   -0.3080 H       1  UNL1        0.0661
     23 H           3.8208    3.5975   -0.4726 H       1  UNL1        0.0660
     24 H           2.3951    3.0839    0.4371 H       1  UNL1        0.0660
     25 H           2.5153    2.7825   -1.3414 H       1  UNL1        0.0660
     26 H           4.7728   -0.6247    0.3600 H       1  UNL1        0.0655
     27 H           3.6995   -2.8767    0.7056 H       1  UNL1        0.0641
     28 H          -2.8307   -1.5437   -1.4748 H       1  UNL1        0.0656
     29 H          -4.4463    0.6394   -1.3720 H       1  UNL1        0.0652
     30 H          -2.3752    3.5259   -0.0878 H       1  UNL1        0.0308
     31 H          -3.1621    2.8958    1.3739 H       1  UNL1        0.0308
     32 H          -4.1065    3.1465   -0.1049 H       1  UNL1        0.0308
@<TRIPOS>BOND
     1     1     2    1
     2     2     3   ar
     3     3     4   ar
     4     4     5   ar
     5     5     6   ar
     6     6     7   ar
     7     7     8    1
     8     8     9    1
     9     7    10   ar
    10    10    11   ar
    11     5    12   ar
    12    12    13    1
    13    13    14   ar
    14    14    15   ar
    15    15    16   ar
    16    16    17   ar
    17    16    18    1
    18    12     2   ar
    19    11     4   ar
    20    17    13   ar
    21     1    19    1
    22     1    20    1
    23     1    21    1
    24     6    22    1
    25     9    23    1
    26     9    24    1
    27     9    25    1
    28    10    26    1
    29    11    27    1
    30    14    28    1
    31    15    29    1
    32    18    30    1
    33    18    31    1
    34    18    32    1
