@<TRIPOS>MOLECULE
*****
 34 36 0 0 0
SMALL
GASTEIGER

@<TRIPOS>ATOM
      1 C           1.0193   -3.5178    0.7383 C.3     1  UNL1        0.0310
      2 N          -0.0260   -2.5405    0.5335 N.ar    1  UNL1       -0.2626
      3 N          -1.2946   -2.9033    0.8300 N.ar    1  UNL1       -0.1708
      4 C          -2.0197   -1.7894    0.6532 C.ar    1  UNL1        0.0937
      5 C          -1.1607   -0.7235    0.2051 C.ar    1  UNL1        0.0341
      6 C          -1.5578    0.5804   -0.0948 C.ar    1  UNL1       -0.0086
      7 C          -2.9437    0.7781    0.0974 C.ar    1  UNL1        0.1209
      8 O          -3.3455    2.0614   -0.1975 O.3     1  UNL1       -0.4951
      9 C          -4.7059    2.3922    0.0451 C.3     1  UNL1        0.0788
     10 C          -3.8225   -0.2596    0.5429 C.ar    1  UNL1       -0.0179
     11 C          -3.3951   -1.5770    0.8362 C.ar    1  UNL1       -0.0305
     12 C           0.1106   -1.2407    0.1017 C.ar    1  UNL1        0.1114
     13 C           1.3338   -0.6268   -0.3184 C.ar    1  UNL1        0.1542
     14 C           2.3507   -1.1375   -1.1067 C.ar    1  UNL1       -0.0136
     15 C           3.3304   -0.1225   -1.2418 C.ar    1  UNL1       -0.0123
     16 C           2.8666    0.9701   -0.5363 C.ar    1  UNL1        0.1705
     17 O           1.6564    0.6606    0.0170 O.2     1  UNL1       -0.4504
     18 C           3.4058    2.2963   -0.3058 C.2     1  UNL1        0.1949
     19 C           4.7366    2.5991   -0.9514 C.3     1  UNL1        0.0017
     20 O           2.8452    3.1577    0.3719 O.2     1  UNL1       -0.2891
     21 H           0.6638   -4.2874    1.4293 H       1  UNL1        0.0473
     22 H           1.8929   -3.0263    1.1727 H       1  UNL1        0.0473
     23 H           1.2601   -3.9675   -0.2276 H       1  UNL1        0.0473
     24 H          -0.8995    1.3703   -0.4317 H       1  UNL1        0.0661
     25 H          -5.3728    1.8152   -0.6038 H       1  UNL1        0.0660
     26 H          -4.9645    2.2588    1.1008 H       1  UNL1        0.0660
     27 H          -4.8408    3.4505   -0.1982 H       1  UNL1        0.0660
     28 H          -4.8838   -0.0609    0.6710 H       1  UNL1        0.0655
     29 H          -4.0655   -2.3562    1.1705 H       1  UNL1        0.0641
     30 H           2.3770   -2.1216   -1.5536 H       1  UNL1        0.0656
     31 H           4.2556   -0.1838   -1.7981 H       1  UNL1        0.0656
     32 H           4.6558    2.5107   -2.0383 H       1  UNL1        0.0310
     33 H           5.5023    1.9174   -0.5710 H       1  UNL1        0.0310
     34 H           5.0356    3.6236   -0.7098 H       1  UNL1        0.0310
@<TRIPOS>BOND
     1     1     2    1
     2     2     3   ar
     3     3     4   ar
     4     4     5   ar
     5     5     6   ar
     6     6     7   ar
     7     7     8    1
     8     8     9    1
     9     7    10   ar
    10    10    11   ar
    11     5    12   ar
    12    12    13    1
    13    13    14   ar
    14    14    15   ar
    15    15    16   ar
    16    16    17   ar
    17    16    18    1
    18    18    19    1
    19    18    20    2
    20    12     2   ar
    21    11     4   ar
    22    17    13   ar
    23     1    21    1
    24     1    22    1
    25     1    23    1
    26     6    24    1
    27     9    25    1
    28     9    26    1
    29     9    27    1
    30    10    28    1
    31    11    29    1
    32    14    30    1
    33    15    31    1
    34    19    32    1
    35    19    33    1
    36    19    34    1
