@<TRIPOS>MOLECULE
*****
 31 36 0 0 0
SMALL
GASTEIGER

@<TRIPOS>ATOM
      1 S           1.1245   -2.0276    1.2201 S.2     1  UNL1       -0.0860
      2 C           2.7068   -1.4081    0.8909 C.ar    1  UNL1        0.0380
      3 C           4.0627   -1.7674    1.1333 C.ar    1  UNL1       -0.0300
      4 C           4.8140   -0.7675    0.5611 C.ar    1  UNL1        0.0033
      5 N           3.9821    0.1623   -0.0055 N.ar    1  UNL1       -0.3597
      6 C           2.6788   -0.2316    0.1970 C.ar    1  UNL1        0.0621
      7 C           1.3518    0.1555   -0.0610 C.ar    1  UNL1        0.0219
      8 C           0.3507   -0.6840    0.4109 C.ar    1  UNL1        0.0308
      9 C          -1.0330   -0.3754    0.1978 C.ar    1  UNL1        0.0053
     10 C          -2.1633   -1.1298    0.6167 C.ar    1  UNL1       -0.0021
     11 C          -2.1532   -2.3168    1.3163 C.ar    1  UNL1       -0.0160
     12 S          -3.7284   -2.9285    1.6411 S.2     1  UNL1       -0.1039
     13 C          -4.4731   -1.6106    0.8478 C.ar    1  UNL1       -0.0166
     14 C          -3.5379   -0.7346    0.3528 C.ar    1  UNL1       -0.0102
     15 C          -3.9390    0.4077   -0.3294 C.ar    1  UNL1       -0.0529
     16 C          -2.8436    1.1749   -0.7565 C.ar    1  UNL1       -0.0528
     17 C          -1.4551    0.8234   -0.5180 C.ar    1  UNL1       -0.0080
     18 C          -0.3571    1.6140   -0.9590 C.ar    1  UNL1       -0.0025
     19 C          -0.5061    2.7966   -1.6592 C.ar    1  UNL1       -0.0160
     20 S           0.9961    3.5354   -2.0604 S.2     1  UNL1       -0.1038
     21 C           1.8881    2.2789   -1.3000 C.ar    1  UNL1       -0.0159
     22 C           1.0299    1.3547   -0.7749 C.ar    1  UNL1       -0.0001
     23 H           4.4291   -2.6403    1.6559 H       1  UNL1        0.0644
     24 H           5.8876   -0.6383    0.5092 H       1  UNL1        0.0807
     25 H           4.2619    1.0007   -0.4932 H       1  UNL1        0.1654
     26 H          -1.3323   -2.9080    1.6832 H       1  UNL1        0.0700
     27 H          -5.5516   -1.5552    0.7907 H       1  UNL1        0.0699
     28 H          -4.9643    0.6958   -0.5222 H       1  UNL1        0.0624
     29 H          -3.0810    2.0878   -1.2998 H       1  UNL1        0.0624
     30 H          -1.4074    3.2999   -1.9761 H       1  UNL1        0.0700
     31 H           2.9623    2.3362   -1.3094 H       1  UNL1        0.0700
@<TRIPOS>BOND
     1     1     2   ar
     2     2     3   ar
     3     3     4   ar
     4     4     5   ar
     5     5     6   ar
     6     6     7   ar
     7     7     8   ar
     8     8     9   ar
     9     9    10   ar
    10    10    11   ar
    11    11    12   ar
    12    12    13   ar
    13    13    14   ar
    14    14    15   ar
    15    15    16   ar
    16    16    17   ar
    17    17    18   ar
    18    18    19   ar
    19    19    20   ar
    20    20    21   ar
    21    21    22   ar
    22     8     1   ar
    23    17     9   ar
    24    22    18   ar
    25     6     2   ar
    26    22     7   ar
    27    14    10   ar
    28     3    23    1
    29     4    24    1
    30     5    25    1
    31    11    26    1
    32    13    27    1
    33    15    28    1
    34    16    29    1
    35    19    30    1
    36    21    31    1
