@<TRIPOS>MOLECULE
*****
 30 34 0 0 0
SMALL
GASTEIGER

@<TRIPOS>ATOM
      1 SI         -0.2553    0.8809    0.7492 Si      1  UNL1        0.0000
      2 C           0.8082   -0.3145   -0.3084 C.2     1  UNL1        0.0000
      3 C           0.0095   -1.2344   -0.9093 C.2     1  UNL1        0.0000
      4 C          -1.4312   -1.1076   -0.6222 C.ar    1  UNL1        0.0000
      5 C          -2.4323   -1.9326   -1.1236 C.ar    1  UNL1        0.0000
      6 C          -3.7741   -1.7022   -0.7700 C.ar    1  UNL1        0.0000
      7 C          -4.0929   -0.6310    0.0942 C.ar    1  UNL1        0.0000
      8 C          -5.2840   -0.1016    0.6575 C.ar    1  UNL1        0.0000
      9 C          -4.9066    0.9720    1.4318 C.ar    1  UNL1        0.0000
     10 O          -3.5599    1.1466    1.3884 O.2     1  UNL1        0.0000
     11 C          -3.0613    0.1742    0.5764 C.ar    1  UNL1        0.0000
     12 C          -1.7398   -0.0402    0.2377 C.ar    1  UNL1        0.0000
     13 C           2.2296   -0.2660   -0.4584 C.ar    1  UNL1        0.0000
     14 S           3.0863   -1.4241   -1.4604 S.2     1  UNL1        0.0000
     15 C           4.6261   -0.7536   -1.1484 C.ar    1  UNL1        0.0000
     16 C           4.4565    0.2957   -0.3206 C.ar    1  UNL1        0.0000
     17 C           5.3887    1.1941    0.2463 C.ar    1  UNL1        0.0000
     18 C           4.7799    2.1500    1.0603 C.ar    1  UNL1        0.0000
     19 S           3.0389    2.0427    1.2073 S.2     1  UNL1        0.0000
     20 C           3.1544    0.6061    0.0892 C.ar    1  UNL1        0.0000
     21 H           0.0536    0.7442    2.1974 H       1  UNL1        0.0000
     22 H          -0.2078    2.2672    0.2132 H       1  UNL1        0.0000
     23 H           0.3399   -2.0304   -1.5639 H       1  UNL1        0.0000
     24 H          -2.1881   -2.7569   -1.7885 H       1  UNL1        0.0000
     25 H          -4.5576   -2.3454   -1.1605 H       1  UNL1        0.0000
     26 H          -6.2936   -0.4593    0.5159 H       1  UNL1        0.0000
     27 H          -5.4476    1.6788    2.0456 H       1  UNL1        0.0000
     28 H           5.5274   -1.1633   -1.5817 H       1  UNL1        0.0000
     29 H           6.4594    1.1668    0.0843 H       1  UNL1        0.0000
     30 H           5.2734    2.9438    1.6047 H       1  UNL1        0.0000
@<TRIPOS>BOND
     1     1     2    1
     2     2     3    2
     3     3     4    1
     4     4     5   ar
     5     5     6   ar
     6     6     7   ar
     7     7     8   ar
     8     8     9   ar
     9     9    10   ar
    10    10    11   ar
    11    11    12   ar
    12     2    13    1
    13    13    14   ar
    14    14    15   ar
    15    15    16   ar
    16    16    17   ar
    17    17    18   ar
    18    18    19   ar
    19    19    20   ar
    20    12     1    1
    21    20    13   ar
    22    12     4   ar
    23    20    16   ar
    24    11     7   ar
    25     1    21    1
    26     1    22    1
    27     3    23    1
    28     5    24    1
    29     6    25    1
    30     8    26    1
    31     9    27    1
    32    15    28    1
    33    17    29    1
    34    18    30    1
