@<TRIPOS>MOLECULE
*****
 45 52 0 0 0
SMALL
GASTEIGER

@<TRIPOS>ATOM
      1 SI         -5.2859   -1.6304    1.4110 Si      1  UNL1        0.0000
      2 C          -6.7412   -0.8406    0.4918 C.2     1  UNL1        0.0000
      3 C          -6.3685    0.1344   -0.3564 C.2     1  UNL1        0.0000
      4 C          -4.9242    0.3458   -0.3679 C.ar    1  UNL1        0.0000
      5 C          -4.1153   -0.4656    0.4794 C.ar    1  UNL1        0.0000
      6 C          -2.7100   -0.3992    0.6089 C.ar    1  UNL1        0.0000
      7 N          -2.1426   -1.1922    1.5268 N.ar    1  UNL1        0.0000
      8 C          -0.8011   -1.1581    1.7099 C.ar    1  UNL1        0.0000
      9 C           0.1043   -0.4373    0.9491 C.ar    1  UNL1        0.0000
     10 C           1.5174   -0.5622    1.2349 C.ar    1  UNL1        0.0000
     11 C           2.5456    0.0214    0.4685 C.ar    1  UNL1        0.0000
     12 C           3.9520   -0.1363    0.7259 C.ar    1  UNL1        0.0000
     13 S           4.7320    0.5627    2.1044 S.2     1  UNL1        0.0000
     14 C           6.2970   -0.0651    1.6711 C.ar    1  UNL1        0.0000
     15 C           6.1497   -0.7733    0.5330 C.ar    1  UNL1        0.0000
     16 C           6.8920   -1.5495   -0.3897 C.ar    1  UNL1        0.0000
     17 C           5.9866   -1.9952   -1.3771 C.ar    1  UNL1        0.0000
     18 N           4.6917   -1.5417   -1.1316 N.ar    1  UNL1        0.0000
     19 C           4.8746   -0.8202    0.0145 C.ar    1  UNL1        0.0000
     20 C           2.0131    0.6912   -0.6264 C.ar    1  UNL1        0.0000
     21 C           2.6990    1.2977   -1.6473 C.ar    1  UNL1        0.0000
     22 O           1.8185    1.7174   -2.5988 O.2     1  UNL1        0.0000
     23 C           0.5634    1.4010   -2.1629 C.ar    1  UNL1        0.0000
     24 C           0.6142    0.8472   -0.9068 C.ar    1  UNL1        0.0000
     25 C          -0.4624    0.3584   -0.0990 C.ar    1  UNL1        0.0000
     26 C          -1.9141    0.4862   -0.1937 C.ar    1  UNL1        0.0000
     27 C          -2.7418    1.3954   -0.9534 C.ar    1  UNL1        0.0000
     28 C          -2.3065    2.5678   -1.5275 C.ar    1  UNL1        0.0000
     29 S          -3.5545    3.3983   -2.3673 S.2     1  UNL1        0.0000
     30 C          -4.7424    2.2857   -1.8322 C.ar    1  UNL1        0.0000
     31 C          -4.1876    1.3065   -1.0439 C.ar    1  UNL1        0.0000
     32 H          -5.3907   -1.3507    2.8661 H       1  UNL1        0.0000
     33 H          -5.1510   -3.0577    1.0210 H       1  UNL1        0.0000
     34 H          -7.7483   -1.1811    0.6778 H       1  UNL1        0.0000
     35 H          -7.0529    0.7057   -0.9671 H       1  UNL1        0.0000
     36 H          -0.4631   -1.8023    2.5202 H       1  UNL1        0.0000
     37 H           1.8182   -1.1754    2.0883 H       1  UNL1        0.0000
     38 H           7.1717    0.1270    2.2752 H       1  UNL1        0.0000
     39 H           7.9498   -1.7756   -0.3643 H       1  UNL1        0.0000
     40 H           6.1675   -2.6123   -2.2481 H       1  UNL1        0.0000
     41 H           3.8303   -1.6887   -1.6446 H       1  UNL1        0.0000
     42 H           3.7433    1.4675   -1.8726 H       1  UNL1        0.0000
     43 H          -0.2182    1.6180   -2.8760 H       1  UNL1        0.0000
     44 H          -1.3315    3.0286   -1.4999 H       1  UNL1        0.0000
     45 H          -5.7784    2.4466   -2.0955 H       1  UNL1        0.0000
@<TRIPOS>BOND
     1     1     2    1
     2     2     3    2
     3     3     4    1
     4     4     5   ar
     5     5     6   ar
     6     6     7   ar
     7     7     8   ar
     8     8     9   ar
     9     9    10   ar
    10    10    11   ar
    11    11    12    1
    12    12    13   ar
    13    13    14   ar
    14    14    15   ar
    15    15    16   ar
    16    16    17   ar
    17    17    18   ar
    18    18    19   ar
    19    11    20   ar
    20    20    21   ar
    21    21    22   ar
    22    22    23   ar
    23    23    24   ar
    24    24    25   ar
    25    25    26   ar
    26    26    27   ar
    27    27    28   ar
    28    28    29   ar
    29    29    30   ar
    30    30    31   ar
    31     5     1    1
    32    26     6   ar
    33    31    27   ar
    34    31     4   ar
    35    25     9   ar
    36    19    12   ar
    37    24    20   ar
    38    19    15   ar
    39     1    32    1
    40     1    33    1
    41     2    34    1
    42     3    35    1
    43     8    36    1
    44    10    37    1
    45    14    38    1
    46    16    39    1
    47    17    40    1
    48    18    41    1
    49    21    42    1
    50    23    43    1
    51    28    44    1
    52    30    45    1
