@<TRIPOS>MOLECULE
*****
 38 40 0 0 0
SMALL
GASTEIGER

@<TRIPOS>ATOM
      1 C           0.1399   -1.0404    3.0572 C.3     1  UNL1        0.0310
      2 N           1.1682   -0.6741    2.1072 N.ar    1  UNL1       -0.2626
      3 N           2.4597   -0.8167    2.4815 N.ar    1  UNL1       -0.1708
      4 C           3.1711   -0.4165    1.4198 C.ar    1  UNL1        0.0937
      5 C           2.2766    0.0024    0.3679 C.ar    1  UNL1        0.0341
      6 C           2.6646    0.4553   -0.8953 C.ar    1  UNL1       -0.0086
      7 C           4.0689    0.4894   -1.0542 C.ar    1  UNL1        0.1209
      8 O           4.4518    0.9396   -2.2979 O.3     1  UNL1       -0.4951
      9 C           5.8455    0.9858   -2.5743 C.3     1  UNL1        0.0788
     10 C           4.9774    0.0947   -0.0240 C.ar    1  UNL1       -0.0179
     11 C           4.5635   -0.3736    1.2451 C.ar    1  UNL1       -0.0305
     12 C           0.9921   -0.1510    0.8429 C.ar    1  UNL1        0.1114
     13 C          -0.2937    0.1210    0.2701 C.ar    1  UNL1        0.1544
     14 C          -0.6617    1.0787   -0.6595 C.ar    1  UNL1       -0.0135
     15 C          -2.0518    0.9351   -0.8901 C.ar    1  UNL1       -0.0086
     16 C          -2.4821   -0.0973   -0.0809 C.ar    1  UNL1        0.2121
     17 O          -1.4154   -0.5830    0.6233 O.2     1  UNL1       -0.4467
     18 C          -3.7757   -0.7008    0.1359 C.2     1  UNL1        0.3749
     19 O          -4.7007   -0.1004   -0.6707 O.3     1  UNL1       -0.4593
     20 C          -6.0402   -0.6036   -0.5661 C.3     1  UNL1        0.0901
     21 C          -6.7806    0.1066    0.5516 C.3     1  UNL1       -0.0306
     22 O          -4.0241   -1.6060    0.9231 O.2     1  UNL1       -0.2415
     23 H          -0.3679   -1.9340    2.6868 H       1  UNL1        0.0473
     24 H           0.6001   -1.2543    4.0259 H       1  UNL1        0.0473
     25 H          -0.5551   -0.2044    3.1662 H       1  UNL1        0.0473
     26 H           1.9970    0.7404   -1.6953 H       1  UNL1        0.0661
     27 H           5.9706    1.3495   -3.5988 H       1  UNL1        0.0660
     28 H           6.2928   -0.0121   -2.5194 H       1  UNL1        0.0660
     29 H           6.3565    1.6885   -1.9081 H       1  UNL1        0.0660
     30 H           6.0509    0.1390   -0.1909 H       1  UNL1        0.0655
     31 H           5.2551   -0.6788    2.0180 H       1  UNL1        0.0641
     32 H          -0.0081    1.8108   -1.1126 H       1  UNL1        0.0656
     33 H          -2.6707    1.5192   -1.5578 H       1  UNL1        0.0658
     34 H          -6.0495   -1.6908   -0.4276 H       1  UNL1        0.0695
     35 H          -6.5337   -0.3984   -1.5218 H       1  UNL1        0.0695
     36 H          -6.7639    1.1903    0.3956 H       1  UNL1        0.0262
     37 H          -6.3067   -0.0829    1.5198 H       1  UNL1        0.0262
     38 H          -7.8209   -0.2271    0.6008 H       1  UNL1        0.0262
@<TRIPOS>BOND
     1     1     2    1
     2     2     3   ar
     3     3     4   ar
     4     4     5   ar
     5     5     6   ar
     6     6     7   ar
     7     7     8    1
     8     8     9    1
     9     7    10   ar
    10    10    11   ar
    11     5    12   ar
    12    12    13    1
    13    13    14   ar
    14    14    15   ar
    15    15    16   ar
    16    16    17   ar
    17    16    18    1
    18    18    19    1
    19    19    20    1
    20    20    21    1
    21    18    22    2
    22    12     2   ar
    23    11     4   ar
    24    17    13   ar
    25     1    23    1
    26     1    24    1
    27     1    25    1
    28     6    26    1
    29     9    27    1
    30     9    28    1
    31     9    29    1
    32    10    30    1
    33    11    31    1
    34    14    32    1
    35    15    33    1
    36    20    34    1
    37    20    35    1
    38    21    36    1
    39    21    37    1
    40    21    38    1
