@<TRIPOS>MOLECULE
*****
 31 33 0 0 0
SMALL
GASTEIGER

@<TRIPOS>ATOM
      1 C          -1.5299    2.9229   -0.8287 C.3     1  UNL1        0.0310
      2 N          -0.3656    2.1287   -0.5001 N.ar    1  UNL1       -0.2626
      3 N           0.8383    2.7424   -0.4808 N.ar    1  UNL1       -0.1708
      4 C           1.7086    1.7842   -0.1371 C.ar    1  UNL1        0.0937
      5 C           1.0066    0.5336    0.0380 C.ar    1  UNL1        0.0341
      6 C           1.5818   -0.6823    0.4270 C.ar    1  UNL1       -0.0086
      7 C           2.9755   -0.5736    0.6194 C.ar    1  UNL1        0.1209
      8 O           3.7894   -1.6166    1.0022 O.3     1  UNL1       -0.4951
      9 C           3.1622   -2.8669    1.2570 C.3     1  UNL1        0.0788
     10 C           3.6949    0.6500    0.4347 C.ar    1  UNL1       -0.0179
     11 C           3.0956    1.8703    0.0551 C.ar    1  UNL1       -0.0305
     12 C          -0.3236    0.7767   -0.2300 C.ar    1  UNL1        0.1114
     13 C          -1.4797   -0.0700   -0.2540 C.ar    1  UNL1        0.1542
     14 C          -1.5859   -1.4114   -0.5824 C.ar    1  UNL1       -0.0136
     15 C          -2.9503   -1.7746   -0.4575 C.ar    1  UNL1       -0.0126
     16 C          -3.6201   -0.6337   -0.0724 C.ar    1  UNL1        0.1676
     17 O          -2.7336    0.3950    0.0463 O.2     1  UNL1       -0.4507
     18 C          -5.0126   -0.3840    0.1951 C.2     1  UNL1        0.1851
     19 O          -5.5030    0.6997    0.5019 O.2     1  UNL1       -0.2924
     20 H          -1.2109    3.9151   -1.1601 H       1  UNL1        0.0473
     21 H          -2.0762    2.4320   -1.6377 H       1  UNL1        0.0473
     22 H          -2.1469    3.0159    0.0681 H       1  UNL1        0.0473
     23 H           1.0215   -1.5897    0.5790 H       1  UNL1        0.0661
     24 H           2.6899   -3.2628    0.3519 H       1  UNL1        0.0660
     25 H           2.4420   -2.7878    2.0780 H       1  UNL1        0.0660
     26 H           3.9390   -3.5742    1.5631 H       1  UNL1        0.0660
     27 H           4.7720    0.6411    0.6052 H       1  UNL1        0.0655
     28 H           3.6492    2.7898   -0.0710 H       1  UNL1        0.0641
     29 H          -0.7752   -2.0543   -0.8956 H       1  UNL1        0.0656
     30 H          -3.3877   -2.7465   -0.6403 H       1  UNL1        0.0656
     31 H          -5.6651   -1.2688    0.1010 H       1  UNL1        0.1114
@<TRIPOS>BOND
     1     1     2    1
     2     2     3   ar
     3     3     4   ar
     4     4     5   ar
     5     5     6   ar
     6     6     7   ar
     7     7     8    1
     8     8     9    1
     9     7    10   ar
    10    10    11   ar
    11     5    12   ar
    12    12    13    1
    13    13    14   ar
    14    14    15   ar
    15    15    16   ar
    16    16    17   ar
    17    16    18    1
    18    18    19    2
    19    12     2   ar
    20    11     4   ar
    21    17    13   ar
    22     1    20    1
    23     1    21    1
    24     1    22    1
    25     6    23    1
    26     9    24    1
    27     9    25    1
    28     9    26    1
    29    10    27    1
    30    11    28    1
    31    14    29    1
    32    15    30    1
    33    18    31    1
