@<TRIPOS>MOLECULE
*****
 33 35 0 0 0
SMALL
GASTEIGER

@<TRIPOS>ATOM
      1 C           1.1823   -3.1307   -0.3387 C.3     1  UNL1        0.0310
      2 N           0.0802   -2.2123   -0.1505 N.ar    1  UNL1       -0.2626
      3 N          -1.1654   -2.7268   -0.0356 N.ar    1  UNL1       -0.1708
      4 C          -1.9619   -1.6627    0.1289 C.ar    1  UNL1        0.0937
      5 C          -1.1713   -0.4562    0.0952 C.ar    1  UNL1        0.0341
      6 C          -1.6613    0.8414    0.2605 C.ar    1  UNL1       -0.0086
      7 C          -3.0616    0.8742    0.4514 C.ar    1  UNL1        0.1209
      8 O          -3.5462    2.1533    0.6103 O.3     1  UNL1       -0.4951
      9 C          -4.9414    2.2982    0.8409 C.3     1  UNL1        0.0788
     10 C          -3.8706   -0.3039    0.4744 C.ar    1  UNL1       -0.0179
     11 C          -3.3522   -1.6108    0.3174 C.ar    1  UNL1       -0.0305
     12 C           0.1379   -0.8351   -0.1073 C.ar    1  UNL1        0.1115
     13 C           1.3533   -0.0891   -0.2525 C.ar    1  UNL1        0.1575
     14 C           1.5545    1.1767   -0.7791 C.ar    1  UNL1       -0.0105
     15 C           2.9424    1.4536   -0.7025 C.ar    1  UNL1        0.0222
     16 C           3.5218    0.3393   -0.1428 C.ar    1  UNL1        0.2866
     17 O           4.7482   -0.0492    0.1893 O.3     1  UNL1       -0.4673
     18 C           5.7734    0.9026   -0.0556 C.3     1  UNL1        0.0819
     19 O           2.5724   -0.5930    0.1239 O.2     1  UNL1       -0.4233
     20 H           1.7941   -3.1238    0.5664 H       1  UNL1        0.0473
     21 H           0.7907   -4.1374   -0.5098 H       1  UNL1        0.0473
     22 H           1.7599   -2.8168   -1.2114 H       1  UNL1        0.0473
     23 H          -1.0667    1.7433    0.2659 H       1  UNL1        0.0661
     24 H          -5.1511    3.3658    0.9582 H       1  UNL1        0.0660
     25 H          -5.5220    1.9382   -0.0148 H       1  UNL1        0.0660
     26 H          -5.2435    1.7970    1.7664 H       1  UNL1        0.0660
     27 H          -4.9452   -0.2300    0.6228 H       1  UNL1        0.0655
     28 H          -3.9679   -2.4991    0.3437 H       1  UNL1        0.0641
     29 H           0.7916    1.8240   -1.1879 H       1  UNL1        0.0657
     30 H           3.4479    2.3515   -1.0253 H       1  UNL1        0.0689
     31 H           5.6066    1.8168    0.5244 H       1  UNL1        0.0661
     32 H           5.8461    1.1342   -1.1238 H       1  UNL1        0.0661
     33 H           6.7251    0.4671    0.2629 H       1  UNL1        0.0661
@<TRIPOS>BOND
     1     1     2    1
     2     2     3   ar
     3     3     4   ar
     4     4     5   ar
     5     5     6   ar
     6     6     7   ar
     7     7     8    1
     8     8     9    1
     9     7    10   ar
    10    10    11   ar
    11     5    12   ar
    12    12    13    1
    13    13    14   ar
    14    14    15   ar
    15    15    16   ar
    16    16    17    1
    17    17    18    1
    18    16    19   ar
    19    12     2   ar
    20    11     4   ar
    21    19    13   ar
    22     1    20    1
    23     1    21    1
    24     1    22    1
    25     6    23    1
    26     9    24    1
    27     9    25    1
    28     9    26    1
    29    10    27    1
    30    11    28    1
    31    14    29    1
    32    15    30    1
    33    18    31    1
    34    18    32    1
    35    18    33    1
