@<TRIPOS>MOLECULE
*****
 32 34 0 0 0
SMALL
GASTEIGER

@<TRIPOS>ATOM
      1 C          -1.9988   -2.6418   -1.1881 C.3     1  UNL1        0.0309
      2 N          -0.7466   -2.0217   -0.8165 N.ar    1  UNL1       -0.2651
      3 N           0.3882   -2.7471   -0.9485 N.ar    1  UNL1       -0.1709
      4 C           1.3729   -1.9140   -0.5821 C.ar    1  UNL1        0.0936
      5 C           0.8127   -0.6398   -0.2125 C.ar    1  UNL1        0.0316
      6 C           1.5237    0.4755    0.2311 C.ar    1  UNL1       -0.0087
      7 C           2.9156    0.2385    0.2812 C.ar    1  UNL1        0.1209
      8 O           3.6269    1.3349    0.7145 O.3     1  UNL1       -0.4951
      9 C           5.0363    1.1937    0.8321 C.3     1  UNL1        0.0788
     10 C           3.5049   -1.0135   -0.0843 C.ar    1  UNL1       -0.0179
     11 C           2.7584   -2.1327   -0.5263 C.ar    1  UNL1       -0.0305
     12 C          -0.5513   -0.7362   -0.3628 C.ar    1  UNL1        0.0830
     13 C          -1.5887    0.2293   -0.1477 C.ar    1  UNL1        0.0380
     14 C          -1.7267    1.4471   -0.7812 C.ar    1  UNL1       -0.0452
     15 C          -2.8641    2.1722   -0.3197 C.ar    1  UNL1       -0.0512
     16 C          -3.5538    1.4900    0.6604 C.ar    1  UNL1       -0.0126
     17 S          -2.8209   -0.0153    1.0134 S.2     1  UNL1       -0.0919
     18 C          -4.7811    1.9083    1.3941 C.3     1  UNL1       -0.0334
     19 H          -2.4782   -3.0135   -0.2796 H       1  UNL1        0.0473
     20 H          -1.7996   -3.4720   -1.8715 H       1  UNL1        0.0473
     21 H          -2.6309   -1.9084   -1.6940 H       1  UNL1        0.0473
     22 H           1.0849    1.4215    0.5175 H       1  UNL1        0.0661
     23 H           5.2968    0.4195    1.5612 H       1  UNL1        0.0660
     24 H           5.4952    0.9942   -0.1417 H       1  UNL1        0.0660
     25 H           5.4373    2.1434    1.1993 H       1  UNL1        0.0660
     26 H           4.5825   -1.1488   -0.0304 H       1  UNL1        0.0655
     27 H           3.2101   -3.0764   -0.7978 H       1  UNL1        0.0641
     28 H          -1.0449    1.8037   -1.5443 H       1  UNL1        0.0630
     29 H          -3.1550    3.1488   -0.6881 H       1  UNL1        0.0626
     30 H          -5.1270    2.8888    1.0504 H       1  UNL1        0.0283
     31 H          -4.5855    1.9803    2.4691 H       1  UNL1        0.0283
     32 H          -5.5933    1.1917    1.2332 H       1  UNL1        0.0283
@<TRIPOS>BOND
     1     1     2    1
     2     2     3   ar
     3     3     4   ar
     4     4     5   ar
     5     5     6   ar
     6     6     7   ar
     7     7     8    1
     8     8     9    1
     9     7    10   ar
    10    10    11   ar
    11     5    12   ar
    12    12    13    1
    13    13    14   ar
    14    14    15   ar
    15    15    16   ar
    16    16    17   ar
    17    16    18    1
    18    12     2   ar
    19    11     4   ar
    20    17    13   ar
    21     1    19    1
    22     1    20    1
    23     1    21    1
    24     6    22    1
    25     9    23    1
    26     9    24    1
    27     9    25    1
    28    10    26    1
    29    11    27    1
    30    14    28    1
    31    15    29    1
    32    18    30    1
    33    18    31    1
    34    18    32    1
