@<TRIPOS>MOLECULE
*****
 31 33 0 0 0
SMALL
GASTEIGER

@<TRIPOS>ATOM
      1 C           1.1671   -1.4582   -3.0311 C.3     1  UNL1        0.0309
      2 N           0.2027   -1.0638   -2.0284 N.ar    1  UNL1       -0.2651
      3 N          -1.0916   -1.4067   -2.2224 N.ar    1  UNL1       -0.1709
      4 C          -1.7343   -0.9566   -1.1356 C.ar    1  UNL1        0.0936
      5 C          -0.7936   -0.3203   -0.2501 C.ar    1  UNL1        0.0316
      6 C          -1.0914    0.2764    0.9755 C.ar    1  UNL1       -0.0087
      7 C          -2.4652    0.1905    1.2946 C.ar    1  UNL1        0.1209
      8 O          -2.7675    0.7732    2.5049 O.3     1  UNL1       -0.4951
      9 C          -4.1347    0.7967    2.8940 C.3     1  UNL1        0.0788
     10 C          -3.4238   -0.4412    0.4405 C.ar    1  UNL1       -0.0179
     11 C          -3.0958   -1.0339   -0.8028 C.ar    1  UNL1       -0.0305
     12 C           0.4441   -0.3963   -0.8472 C.ar    1  UNL1        0.0830
     13 C           1.7280    0.0613   -0.4012 C.ar    1  UNL1        0.0385
     14 C           2.3673   -0.2903    0.7705 C.ar    1  UNL1       -0.0448
     15 C           3.6262    0.3642    0.9197 C.ar    1  UNL1       -0.0438
     16 C           3.9053    1.1997   -0.1427 C.ar    1  UNL1        0.0520
     17 S           2.6463    1.1929   -1.2972 S.2     1  UNL1       -0.0841
     18 C           5.0791    2.0209   -0.3442 C.2     1  UNL1        0.1568
     19 O           5.3133    2.7341   -1.3169 O.2     1  UNL1       -0.2952
     20 H           1.3476   -0.6030   -3.6863 H       1  UNL1        0.0473
     21 H           2.0887   -1.7801   -2.5409 H       1  UNL1        0.0473
     22 H           0.7621   -2.2928   -3.6105 H       1  UNL1        0.0473
     23 H          -0.3764    0.7645    1.6232 H       1  UNL1        0.0661
     24 H          -4.1995    1.3173    3.8544 H       1  UNL1        0.0660
     25 H          -4.7421    1.3535    2.1728 H       1  UNL1        0.0660
     26 H          -4.5201   -0.2177    3.0400 H       1  UNL1        0.0660
     27 H          -4.4710   -0.4859    0.7298 H       1  UNL1        0.0655
     28 H          -3.8260   -1.5064   -1.4449 H       1  UNL1        0.0641
     29 H           1.9526   -0.9879    1.4896 H       1  UNL1        0.0630
     30 H           4.2860    0.2227    1.7677 H       1  UNL1        0.0630
     31 H           5.8167    1.9730    0.4760 H       1  UNL1        0.1087
@<TRIPOS>BOND
     1     1     2    1
     2     2     3   ar
     3     3     4   ar
     4     4     5   ar
     5     5     6   ar
     6     6     7   ar
     7     7     8    1
     8     8     9    1
     9     7    10   ar
    10    10    11   ar
    11     5    12   ar
    12    12    13    1
    13    13    14   ar
    14    14    15   ar
    15    15    16   ar
    16    16    17   ar
    17    16    18    1
    18    18    19    2
    19    12     2   ar
    20    11     4   ar
    21    17    13   ar
    22     1    20    1
    23     1    21    1
    24     1    22    1
    25     6    23    1
    26     9    24    1
    27     9    25    1
    28     9    26    1
    29    10    27    1
    30    11    28    1
    31    14    29    1
    32    15    30    1
    33    18    31    1
