@<TRIPOS>MOLECULE
*****
 30 32 0 0 0
SMALL
GASTEIGER

@<TRIPOS>ATOM
      1 C          -1.0441   -2.8627   -1.3473 C.3     1  UNL1        0.0310
      2 N          -1.4767   -1.6662   -0.6607 N.ar    1  UNL1       -0.2626
      3 N          -2.7964   -1.3726   -0.6791 N.ar    1  UNL1       -0.1708
      4 C          -2.8941   -0.1853   -0.0635 C.ar    1  UNL1        0.0934
      5 C          -1.5833    0.2429    0.3619 C.ar    1  UNL1        0.0306
      6 C          -1.2832    1.4218    1.0461 C.ar    1  UNL1       -0.0504
      7 C          -2.4391    2.1937    1.2832 C.ar    1  UNL1       -0.0610
      8 C          -3.7517    1.8055    0.8740 C.ar    1  UNL1       -0.0597
      9 C          -4.0293    0.6034    0.1877 C.ar    1  UNL1       -0.0340
     10 C          -0.6935   -0.7393   -0.0099 C.ar    1  UNL1        0.1113
     11 C           0.7235   -0.8289    0.1743 C.ar    1  UNL1        0.1542
     12 C           1.5036   -1.9247    0.5046 C.ar    1  UNL1       -0.0136
     13 C           2.8465   -1.4813    0.5718 C.ar    1  UNL1       -0.0123
     14 C           2.8277   -0.1319    0.2905 C.ar    1  UNL1        0.1705
     15 C           3.8976    0.8390    0.2203 C.2     1  UNL1        0.1949
     16 C           3.5042    2.2569   -0.1131 C.3     1  UNL1        0.0017
     17 O           5.0777    0.5481    0.4182 O.2     1  UNL1       -0.2891
     18 O           1.5427    0.2643    0.0573 O.2     1  UNL1       -0.4504
     19 H          -0.1221   -2.6515   -1.8939 H       1  UNL1        0.0473
     20 H          -1.8164   -3.1709   -2.0578 H       1  UNL1        0.0473
     21 H          -0.8902   -3.6468   -0.6025 H       1  UNL1        0.0473
     22 H          -0.2971    1.7275    1.3670 H       1  UNL1        0.0625
     23 H          -2.3274    3.1415    1.8112 H       1  UNL1        0.0618
     24 H          -4.5823    2.4723    1.1057 H       1  UNL1        0.0618
     25 H          -5.0234    0.3102   -0.1185 H       1  UNL1        0.0639
     26 H           1.1486   -2.9280    0.6940 H       1  UNL1        0.0656
     27 H           3.7282   -2.0633    0.8061 H       1  UNL1        0.0656
     28 H           2.8201    2.6444    0.6470 H       1  UNL1        0.0310
     29 H           4.3967    2.8894   -0.1315 H       1  UNL1        0.0310
     30 H           3.0332    2.2927   -1.0993 H       1  UNL1        0.0310
@<TRIPOS>BOND
     1     1     2    1
     2     2     3   ar
     3     3     4   ar
     4     4     5   ar
     5     5     6   ar
     6     6     7   ar
     7     7     8   ar
     8     8     9   ar
     9     5    10   ar
    10    10    11    1
    11    11    12   ar
    12    12    13   ar
    13    13    14   ar
    14    14    15    1
    15    15    16    1
    16    15    17    2
    17    14    18   ar
    18    10     2   ar
    19     9     4   ar
    20    18    11   ar
    21     1    19    1
    22     1    20    1
    23     1    21    1
    24     6    22    1
    25     7    23    1
    26     8    24    1
    27     9    25    1
    28    12    26    1
    29    13    27    1
    30    16    28    1
    31    16    29    1
    32    16    30    1
