@<TRIPOS>MOLECULE
*****
 32 34 0 0 0
SMALL
GASTEIGER

@<TRIPOS>ATOM
      1 C          -1.3749    2.3420    1.8597 C.3     1  UNL1        0.0309
      2 N          -2.0376    1.3306    1.0669 N.ar    1  UNL1       -0.2651
      3 N          -3.3889    1.3529    1.0093 N.ar    1  UNL1       -0.1709
      4 C          -3.7191    0.3013    0.2452 C.ar    1  UNL1        0.0934
      5 C          -2.5201   -0.3866   -0.1692 C.ar    1  UNL1        0.0281
      6 C          -2.4563   -1.5203   -0.9803 C.ar    1  UNL1       -0.0504
      7 C          -3.7415   -1.9540   -1.3658 C.ar    1  UNL1       -0.0610
      8 C          -4.9515   -1.3045   -0.9714 C.ar    1  UNL1       -0.0597
      9 C          -4.9870   -0.1542   -0.1536 C.ar    1  UNL1       -0.0340
     10 C          -1.4535    0.2951    0.3706 C.ar    1  UNL1        0.0829
     11 C          -0.0446    0.0402    0.2958 C.ar    1  UNL1        0.0385
     12 C           0.6085   -1.0997    0.7129 C.ar    1  UNL1       -0.0447
     13 C           2.0146   -1.0370    0.4766 C.ar    1  UNL1       -0.0419
     14 C           2.4018    0.1525   -0.1163 C.ar    1  UNL1        0.0744
     15 C           3.7224    0.6249   -0.5197 C.2     1  UNL1        0.2505
     16 N           4.7835   -0.1352   -0.0562 N.am    1  UNL1       -0.3140
     17 C           6.1438    0.2786   -0.2907 C.3     1  UNL1        0.0004
     18 O           3.9177    1.6279   -1.2032 O.2     1  UNL1       -0.2696
     19 S           1.0400    1.1613   -0.3992 S.2     1  UNL1       -0.0822
     20 H          -0.5364    1.8910    2.3954 H       1  UNL1        0.0473
     21 H          -1.0327    3.1324    1.1877 H       1  UNL1        0.0473
     22 H          -2.0830    2.7507    2.5861 H       1  UNL1        0.0473
     23 H          -1.5497   -2.0164   -1.2976 H       1  UNL1        0.0625
     24 H          -3.8189   -2.8335   -2.0063 H       1  UNL1        0.0618
     25 H          -5.8968   -1.7168   -1.3245 H       1  UNL1        0.0618
     26 H          -5.9029    0.3385    0.1401 H       1  UNL1        0.0639
     27 H           0.1025   -1.9443    1.1667 H       1  UNL1        0.0630
     28 H           2.6922   -1.8438    0.7247 H       1  UNL1        0.0631
     29 H           4.6157   -0.8179    0.6670 H       1  UNL1        0.1487
     30 H           6.3778    1.1116    0.3775 H       1  UNL1        0.0426
     31 H           6.2698    0.5973   -1.3290 H       1  UNL1        0.0426
     32 H           6.8052   -0.5643   -0.0777 H       1  UNL1        0.0426
@<TRIPOS>BOND
     1     1     2    1
     2     2     3   ar
     3     3     4   ar
     4     4     5   ar
     5     5     6   ar
     6     6     7   ar
     7     7     8   ar
     8     8     9   ar
     9     5    10   ar
    10    10    11    1
    11    11    12   ar
    12    12    13   ar
    13    13    14   ar
    14    14    15    1
    15    15    16   am
    16    16    17    1
    17    15    18    2
    18    14    19   ar
    19    10     2   ar
    20     9     4   ar
    21    19    11   ar
    22     1    20    1
    23     1    21    1
    24     1    22    1
    25     6    23    1
    26     7    24    1
    27     8    25    1
    28     9    26    1
    29    12    27    1
    30    13    28    1
    31    16    29    1
    32    17    30    1
    33    17    31    1
    34    17    32    1
