@<TRIPOS>MOLECULE
*****
 34 36 0 0 0
SMALL
GASTEIGER

@<TRIPOS>ATOM
      1 C          -2.3010    3.0341   -0.8366 C.3     1  UNL1        0.0310
      2 N          -2.6833    1.6743   -0.5292 N.ar    1  UNL1       -0.2626
      3 N          -4.0030    1.4068   -0.4063 N.ar    1  UNL1       -0.1708
      4 C          -4.0589    0.1256   -0.0141 C.ar    1  UNL1        0.0934
      5 C          -2.7207   -0.4075    0.0735 C.ar    1  UNL1        0.0306
      6 C          -2.3756   -1.7091    0.4408 C.ar    1  UNL1       -0.0504
      7 C          -3.5145   -2.4848    0.7398 C.ar    1  UNL1       -0.0610
      8 C          -4.8532   -1.9921    0.6666 C.ar    1  UNL1       -0.0597
      9 C          -5.1763   -0.6715    0.2865 C.ar    1  UNL1       -0.0340
     10 C          -1.8561    0.5980   -0.2975 C.ar    1  UNL1        0.1113
     11 C          -0.4277    0.6019   -0.4087 C.ar    1  UNL1        0.1544
     12 C           0.3854    1.2299   -1.3372 C.ar    1  UNL1       -0.0135
     13 C           1.7254    0.9050   -1.0134 C.ar    1  UNL1       -0.0086
     14 C           1.6770    0.0796    0.0929 C.ar    1  UNL1        0.2121
     15 C           2.7012   -0.5783    0.8695 C.2     1  UNL1        0.3749
     16 O           3.9313   -0.2608    0.3644 O.3     1  UNL1       -0.4593
     17 C           5.0250   -0.8651    1.0643 C.3     1  UNL1        0.0901
     18 C           6.3135   -0.4256    0.3967 C.3     1  UNL1       -0.0306
     19 O           2.5214   -1.3123    1.8336 O.2     1  UNL1       -0.2415
     20 O           0.3708   -0.1039    0.4525 O.2     1  UNL1       -0.4467
     21 H          -3.1253    3.7070   -0.5835 H       1  UNL1        0.0473
     22 H          -2.0868    3.0952   -1.9060 H       1  UNL1        0.0473
     23 H          -1.4258    3.3064   -0.2424 H       1  UNL1        0.0473
     24 H          -1.3682   -2.0983    0.5021 H       1  UNL1        0.0625
     25 H          -3.3655   -3.5211    1.0454 H       1  UNL1        0.0618
     26 H          -5.6670   -2.6722    0.9182 H       1  UNL1        0.0618
     27 H          -6.1898   -0.3007    0.2307 H       1  UNL1        0.0639
     28 H           0.0555    1.8380   -2.1676 H       1  UNL1        0.0656
     29 H           2.6221    1.2204   -1.5296 H       1  UNL1        0.0658
     30 H           4.9379   -1.9564    1.0163 H       1  UNL1        0.0695
     31 H           5.0210   -0.5388    2.1103 H       1  UNL1        0.0695
     32 H           7.1815   -0.8631    0.8976 H       1  UNL1        0.0262
     33 H           6.3240   -0.7259   -0.6563 H       1  UNL1        0.0262
     34 H           6.4057    0.6654    0.4175 H       1  UNL1        0.0262
@<TRIPOS>BOND
     1     1     2    1
     2     2     3   ar
     3     3     4   ar
     4     4     5   ar
     5     5     6   ar
     6     6     7   ar
     7     7     8   ar
     8     8     9   ar
     9     5    10   ar
    10    10    11    1
    11    11    12   ar
    12    12    13   ar
    13    13    14   ar
    14    14    15    1
    15    15    16    1
    16    16    17    1
    17    17    18    1
    18    15    19    2
    19    14    20   ar
    20    10     2   ar
    21     9     4   ar
    22    20    11   ar
    23     1    21    1
    24     1    22    1
    25     1    23    1
    26     6    24    1
    27     7    25    1
    28     8    26    1
    29     9    27    1
    30    12    28    1
    31    13    29    1
    32    17    30    1
    33    17    31    1
    34    18    32    1
    35    18    33    1
    36    18    34    1
