@<TRIPOS>MOLECULE
*****
 28 30 0 0 0
SMALL
GASTEIGER

@<TRIPOS>ATOM
      1 C           0.3717    1.6498   -2.1536 C.3     1  UNL1        0.0310
      2 N          -0.6035    1.0072   -1.3002 N.ar    1  UNL1       -0.2626
      3 N          -1.9128    1.2559   -1.5293 N.ar    1  UNL1       -0.1708
      4 C          -2.5648    0.5361   -0.6057 C.ar    1  UNL1        0.0934
      5 C          -1.6116   -0.1884    0.2046 C.ar    1  UNL1        0.0306
      6 C          -1.9213   -1.0205    1.2829 C.ar    1  UNL1       -0.0504
      7 C          -3.3128   -1.1035    1.4987 C.ar    1  UNL1       -0.0610
      8 C          -4.2821   -0.4136    0.7100 C.ar    1  UNL1       -0.0597
      9 C          -3.9460    0.4319   -0.3682 C.ar    1  UNL1       -0.0340
     10 C          -0.3577    0.1189   -0.2757 C.ar    1  UNL1        0.1113
     11 C           0.9565   -0.3068    0.1042 C.ar    1  UNL1        0.1535
     12 C           1.3755   -1.5285    0.6056 C.ar    1  UNL1       -0.0141
     13 C           2.7739   -1.4475    0.8138 C.ar    1  UNL1       -0.0203
     14 C           3.1436   -0.1829    0.4220 C.ar    1  UNL1        0.1028
     15 C           4.4315    0.5361    0.3816 C.3     1  UNL1       -0.0063
     16 O           2.0559    0.5064   -0.0143 O.2     1  UNL1       -0.4584
     17 H           0.9033    2.4000   -1.5636 H       1  UNL1        0.0473
     18 H          -0.1403    2.1342   -2.9899 H       1  UNL1        0.0473
     19 H           1.0570    0.8926   -2.5422 H       1  UNL1        0.0473
     20 H          -1.2087   -1.5390    1.9077 H       1  UNL1        0.0625
     21 H          -3.6715   -1.7267    2.3189 H       1  UNL1        0.0618
     22 H          -5.3358   -0.5419    0.9578 H       1  UNL1        0.0618
     23 H          -4.6799    0.9606   -0.9598 H       1  UNL1        0.0639
     24 H           0.7468   -2.3886    0.7870 H       1  UNL1        0.0656
     25 H           3.4288   -2.2179    1.1962 H       1  UNL1        0.0652
     26 H           5.2469   -0.0974    0.7442 H       1  UNL1        0.0308
     27 H           4.3900    1.4313    1.0096 H       1  UNL1        0.0308
     28 H           4.6670    0.8422   -0.6423 H       1  UNL1        0.0308
@<TRIPOS>BOND
     1     1     2    1
     2     2     3   ar
     3     3     4   ar
     4     4     5   ar
     5     5     6   ar
     6     6     7   ar
     7     7     8   ar
     8     8     9   ar
     9     5    10   ar
    10    10    11    1
    11    11    12   ar
    12    12    13   ar
    13    13    14   ar
    14    14    15    1
    15    14    16   ar
    16    10     2   ar
    17     9     4   ar
    18    16    11   ar
    19     1    17    1
    20     1    18    1
    21     1    19    1
    22     6    20    1
    23     7    21    1
    24     8    22    1
    25     9    23    1
    26    12    24    1
    27    13    25    1
    28    15    26    1
    29    15    27    1
    30    15    28    1
