@<TRIPOS>MOLECULE
*****
 28 30 0 0 0
SMALL
GASTEIGER

@<TRIPOS>ATOM
      1 C          -0.2385    2.3630   -1.8006 C.3     1  UNL1        0.0309
      2 N          -0.9639    1.2570   -1.2173 N.ar    1  UNL1       -0.2651
      3 N          -2.2555    1.0708   -1.5713 N.ar    1  UNL1       -0.1709
      4 C          -2.6381   -0.0291   -0.9035 C.ar    1  UNL1        0.0934
      5 C          -1.5372   -0.5156   -0.1061 C.ar    1  UNL1        0.0281
      6 C          -1.5502   -1.6290    0.7335 C.ar    1  UNL1       -0.0504
      7 C          -2.8058   -2.2703    0.7199 C.ar    1  UNL1       -0.0610
      8 C          -3.9190   -1.8239   -0.0576 C.ar    1  UNL1       -0.0597
      9 C          -3.8788   -0.6885   -0.8964 C.ar    1  UNL1       -0.0340
     10 C          -0.4790    0.3348   -0.3193 C.ar    1  UNL1        0.0829
     11 C           0.8489    0.3497    0.2127 C.ar    1  UNL1        0.0380
     12 C           1.3635    1.2369    1.1342 C.ar    1  UNL1       -0.0452
     13 C           2.7310    0.9674    1.4350 C.ar    1  UNL1       -0.0512
     14 C           3.2152   -0.1170    0.7332 C.ar    1  UNL1       -0.0126
     15 C           4.5802   -0.7129    0.7696 C.3     1  UNL1       -0.0334
     16 S           2.0150   -0.7985   -0.2794 S.2     1  UNL1       -0.0919
     17 H           0.7273    2.0026   -2.1628 H       1  UNL1        0.0473
     18 H          -0.1063    3.1284   -1.0323 H       1  UNL1        0.0473
     19 H          -0.8102    2.7708   -2.6387 H       1  UNL1        0.0473
     20 H          -0.7166   -1.9760    1.3282 H       1  UNL1        0.0625
     21 H          -2.9374   -3.1589    1.3384 H       1  UNL1        0.0618
     22 H          -4.8486   -2.3902    0.0014 H       1  UNL1        0.0618
     23 H          -4.7225   -0.3514   -1.4815 H       1  UNL1        0.0639
     24 H           0.7872    2.0384    1.5810 H       1  UNL1        0.0630
     25 H           3.3261    1.5409    2.1358 H       1  UNL1        0.0626
     26 H           5.2281   -0.1639    1.4609 H       1  UNL1        0.0283
     27 H           4.5404   -1.7548    1.1041 H       1  UNL1        0.0283
     28 H           5.0448   -0.6807   -0.2214 H       1  UNL1        0.0283
@<TRIPOS>BOND
     1     1     2    1
     2     2     3   ar
     3     3     4   ar
     4     4     5   ar
     5     5     6   ar
     6     6     7   ar
     7     7     8   ar
     8     8     9   ar
     9     5    10   ar
    10    10    11    1
    11    11    12   ar
    12    12    13   ar
    13    13    14   ar
    14    14    15    1
    15    14    16   ar
    16    10     2   ar
    17     9     4   ar
    18    16    11   ar
    19     1    17    1
    20     1    18    1
    21     1    19    1
    22     6    20    1
    23     7    21    1
    24     8    22    1
    25     9    23    1
    26    12    24    1
    27    13    25    1
    28    15    26    1
    29    15    27    1
    30    15    28    1
