@<TRIPOS>MOLECULE
*****
 32 37 0 0 0
SMALL
GASTEIGER

@<TRIPOS>ATOM
      1 SI         -3.8194    2.0190    0.3797 Si      1  UNL1        0.0000
      2 C          -5.4341    1.0446    0.1283 C.2     1  UNL1        0.0000
      3 C          -5.2334   -0.2611   -0.1384 C.2     1  UNL1        0.0000
      4 C          -3.8121   -0.6140   -0.1699 C.ar    1  UNL1        0.0000
      5 C          -2.9141    0.4509    0.0792 C.ar    1  UNL1        0.0000
      6 C          -1.5494    0.2134    0.0701 C.ar    1  UNL1        0.0000
      7 O          -0.5404    1.1124    0.2878 O.2     1  UNL1        0.0000
      8 C           0.6341    0.4193    0.1779 C.ar    1  UNL1        0.0000
      9 C           1.9138    0.9409    0.3247 C.ar    1  UNL1        0.0000
     10 C           2.9790    0.0395    0.1681 C.ar    1  UNL1        0.0000
     11 C           2.6576   -1.2938   -0.1198 C.ar    1  UNL1        0.0000
     12 N           1.4115   -1.8191   -0.2664 N.ar    1  UNL1        0.0000
     13 C           0.4050   -0.9258   -0.1098 C.ar    1  UNL1        0.0000
     14 C          -0.9843   -1.0249   -0.1717 C.ar    1  UNL1        0.0000
     15 C          -1.8375   -2.1458   -0.4311 C.ar    1  UNL1        0.0000
     16 N          -1.3927   -3.3675   -0.6730 N.ar    1  UNL1        0.0000
     17 S          -2.8064   -4.2384   -0.8968 S.2     1  UNL1        0.0000
     18 N          -3.9557   -3.0371   -0.6801 N.ar    1  UNL1        0.0000
     19 C          -3.2818   -1.8980   -0.4223 C.ar    1  UNL1        0.0000
     20 C           4.3592    0.5376    0.3130 C.ar    1  UNL1        0.0000
     21 N           4.6553    1.7966    0.5843 N.ar    1  UNL1        0.0000
     22 C           6.0225    1.9691    0.6609 C.ar    1  UNL1        0.0000
     23 C           6.7738    0.8372    0.4472 C.ar    1  UNL1        0.0000
     24 S           5.7381   -0.4885    0.1400 S.2     1  UNL1        0.0000
     25 H          -3.7189    2.5184    1.7731 H       1  UNL1        0.0000
     26 H          -3.6457    3.0326   -0.6895 H       1  UNL1        0.0000
     27 H          -6.3868    1.5464    0.2048 H       1  UNL1        0.0000
     28 H          -6.0111   -0.9929   -0.3143 H       1  UNL1        0.0000
     29 H           2.0693    1.9906    0.5485 H       1  UNL1        0.0000
     30 H           3.4340   -2.0447   -0.2536 H       1  UNL1        0.0000
     31 H           6.4214    2.9527    0.8778 H       1  UNL1        0.0000
     32 H           7.8489    0.7303    0.4568 H       1  UNL1        0.0000
@<TRIPOS>BOND
     1     1     2    1
     2     2     3    2
     3     3     4    1
     4     4     5   ar
     5     5     6   ar
     6     6     7   ar
     7     7     8   ar
     8     8     9   ar
     9     9    10   ar
    10    10    11   ar
    11    11    12   ar
    12    12    13   ar
    13    13    14   ar
    14    14    15   ar
    15    15    16   ar
    16    16    17   ar
    17    17    18   ar
    18    18    19   ar
    19    10    20    1
    20    20    21   ar
    21    21    22   ar
    22    22    23   ar
    23    23    24   ar
    24     5     1    1
    25    14     6   ar
    26    19    15   ar
    27    24    20   ar
    28    19     4   ar
    29    13     8   ar
    30     1    25    1
    31     1    26    1
    32     2    27    1
    33     3    28    1
    34     9    29    1
    35    11    30    1
    36    22    31    1
    37    23    32    1
