@<TRIPOS>MOLECULE
*****
 27 29 0 0 0
SMALL
GASTEIGER

@<TRIPOS>ATOM
      1 C           0.0793    1.9615   -2.0167 C.3     1  UNL1        0.0310
      2 N          -0.7053    1.1162   -1.1439 N.ar    1  UNL1       -0.2626
      3 N          -2.0508    1.2319   -1.1877 N.ar    1  UNL1       -0.1708
      4 C          -2.5020    0.3353   -0.2996 C.ar    1  UNL1        0.0934
      5 C          -1.3827   -0.3577    0.2977 C.ar    1  UNL1        0.0306
      6 C          -1.4629   -1.3421    1.2854 C.ar    1  UNL1       -0.0504
      7 C          -2.7994   -1.6183    1.6421 C.ar    1  UNL1       -0.0610
      8 C          -3.9284   -0.9635    1.0637 C.ar    1  UNL1       -0.0597
      9 C          -3.8231    0.0372    0.0748 C.ar    1  UNL1       -0.0340
     10 C          -0.2389    0.1548   -0.2739 C.ar    1  UNL1        0.1113
     11 C           1.1492   -0.1493   -0.0947 C.ar    1  UNL1        0.1542
     12 C           1.7526   -1.3690    0.1645 C.ar    1  UNL1       -0.0136
     13 C           3.1468   -1.1425    0.2546 C.ar    1  UNL1       -0.0126
     14 C           3.3339    0.2048    0.0407 C.ar    1  UNL1        0.1676
     15 C           4.5217    1.0136    0.0152 C.2     1  UNL1        0.1851
     16 O           5.6637    0.5936    0.1840 O.2     1  UNL1       -0.2924
     17 O           2.1306    0.8068   -0.1828 O.2     1  UNL1       -0.4507
     18 H           0.5891    2.7082   -1.4034 H       1  UNL1        0.0473
     19 H           0.7960    1.3416   -2.5609 H       1  UNL1        0.0473
     20 H          -0.5817    2.4594   -2.7316 H       1  UNL1        0.0473
     21 H          -0.6266   -1.8412    1.7531 H       1  UNL1        0.0625
     22 H          -2.9839   -2.3728    2.4081 H       1  UNL1        0.0618
     23 H          -4.9228   -1.2475    1.4085 H       1  UNL1        0.0618
     24 H          -4.6782    0.5381   -0.3567 H       1  UNL1        0.0639
     25 H           1.2461   -2.3191    0.2647 H       1  UNL1        0.0656
     26 H           3.9269   -1.8668    0.4485 H       1  UNL1        0.0656
     27 H           4.3507    2.0870   -0.1747 H       1  UNL1        0.1114
@<TRIPOS>BOND
     1     1     2    1
     2     2     3   ar
     3     3     4   ar
     4     4     5   ar
     5     5     6   ar
     6     6     7   ar
     7     7     8   ar
     8     8     9   ar
     9     5    10   ar
    10    10    11    1
    11    11    12   ar
    12    12    13   ar
    13    13    14   ar
    14    14    15    1
    15    15    16    2
    16    14    17   ar
    17    10     2   ar
    18     9     4   ar
    19    17    11   ar
    20     1    18    1
    21     1    19    1
    22     1    20    1
    23     6    21    1
    24     7    22    1
    25     8    23    1
    26     9    24    1
    27    12    25    1
    28    13    26    1
    29    15    27    1
