@<TRIPOS>MOLECULE
*****
 31 33 0 0 0
SMALL
GASTEIGER

@<TRIPOS>ATOM
      1 C           0.4596   -0.0471   -2.5234 C.3     1  UNL1        0.0310
      2 N          -0.6491   -0.4858   -1.7048 N.ar    1  UNL1       -0.2626
      3 N          -1.6330   -1.1949   -2.3027 N.ar    1  UNL1       -0.1708
      4 C          -2.4954   -1.4850   -1.3202 C.ar    1  UNL1        0.0934
      5 C          -2.0235   -0.9125   -0.0800 C.ar    1  UNL1        0.0306
      6 C          -2.6486   -1.0349    1.1639 C.ar    1  UNL1       -0.0504
      7 C          -3.8422   -1.7824    1.0818 C.ar    1  UNL1       -0.0610
      8 C          -4.3437   -2.3481   -0.1285 C.ar    1  UNL1       -0.0597
      9 C          -3.6900   -2.2231   -1.3721 C.ar    1  UNL1       -0.0340
     10 C          -0.8446   -0.2539   -0.3597 C.ar    1  UNL1        0.1113
     11 C           0.0459    0.5132    0.4620 C.ar    1  UNL1        0.1540
     12 C          -0.2482    1.3120    1.5495 C.ar    1  UNL1       -0.0137
     13 C           0.9755    1.8308    2.0304 C.ar    1  UNL1       -0.0157
     14 C           1.9881    1.3581    1.2087 C.ar    1  UNL1        0.1305
     15 O           1.3994    0.5658    0.2527 O.2     1  UNL1       -0.4538
     16 C           3.3858    1.6034    1.3220 C.2     1  UNL1        0.0084
     17 C           4.2917    1.4011    0.3464 C.2     1  UNL1        0.1316
     18 C           3.9724    0.9503   -0.9648 C.1     1  UNL1        0.1103
     19 N           3.7463    0.6052   -2.0499 N.1     1  UNL1       -0.1901
     20 C           5.6586    1.6901    0.6262 C.1     1  UNL1        0.1103
     21 N           6.7621    1.9375    0.8855 N.1     1  UNL1       -0.1901
     22 H           1.3066   -0.7035   -2.3152 H       1  UNL1        0.0473
     23 H           0.1825   -0.1230   -3.5786 H       1  UNL1        0.0473
     24 H           0.6891    0.9947   -2.2896 H       1  UNL1        0.0473
     25 H          -2.2844   -0.6361    2.0993 H       1  UNL1        0.0625
     26 H          -4.4148   -1.9435    1.9961 H       1  UNL1        0.0618
     27 H          -5.2761   -2.9113   -0.0886 H       1  UNL1        0.0618
     28 H          -4.0651   -2.6593   -2.2872 H       1  UNL1        0.0639
     29 H          -1.2333    1.5039    1.9513 H       1  UNL1        0.0656
     30 H           1.1053    2.4867    2.8811 H       1  UNL1        0.0655
     31 H           3.7232    1.9914    2.2827 H       1  UNL1        0.0674
@<TRIPOS>BOND
     1     1     2    1
     2     2     3   ar
     3     3     4   ar
     4     4     5   ar
     5     5     6   ar
     6     6     7   ar
     7     7     8   ar
     8     8     9   ar
     9     5    10   ar
    10    10    11    1
    11    11    12   ar
    12    12    13   ar
    13    13    14   ar
    14    14    15   ar
    15    14    16    1
    16    16    17    2
    17    17    18    1
    18    18    19    3
    19    17    20    1
    20    20    21    3
    21    10     2   ar
    22     9     4   ar
    23    15    11   ar
    24     1    22    1
    25     1    23    1
    26     1    24    1
    27     6    25    1
    28     7    26    1
    29     8    27    1
    30     9    28    1
    31    12    29    1
    32    13    30    1
    33    16    31    1
