@<TRIPOS>MOLECULE
*****
 31 34 0 0 0
SMALL
GASTEIGER

@<TRIPOS>ATOM
      1 C          -0.7041    2.9548   -0.2252 C.3     1  UNL1        0.0310
      2 N          -1.4817    1.7448   -0.0713 N.ar    1  UNL1       -0.2626
      3 N          -2.8296    1.8490   -0.0745 N.ar    1  UNL1       -0.1708
      4 C          -3.2712    0.5938    0.0862 C.ar    1  UNL1        0.0934
      5 C          -2.1440   -0.3034    0.2066 C.ar    1  UNL1        0.0306
      6 C          -2.2156   -1.6902    0.3578 C.ar    1  UNL1       -0.0504
      7 C          -3.5503   -2.1443    0.4038 C.ar    1  UNL1       -0.0610
      8 C          -4.6861   -1.2857    0.3022 C.ar    1  UNL1       -0.0597
      9 C          -4.5903    0.1122    0.1379 C.ar    1  UNL1       -0.0340
     10 C          -1.0048    0.4660    0.1203 C.ar    1  UNL1        0.1113
     11 C           0.3893    0.1430    0.1937 C.ar    1  UNL1        0.1546
     12 C           1.0247   -0.8333    0.9456 C.ar    1  UNL1       -0.0065
     13 C           2.4153   -0.7471    0.6766 C.ar    1  UNL1        0.0208
     14 C           2.5541    0.2935   -0.2288 C.ar    1  UNL1        0.1358
     15 C           3.7720    0.7143   -0.7570 C.ar    1  UNL1       -0.0187
     16 C           4.9093    0.0236   -0.3255 C.ar    1  UNL1       -0.0582
     17 C           4.8117   -1.0295    0.5884 C.ar    1  UNL1       -0.0610
     18 C           3.5689   -1.4286    1.1018 C.ar    1  UNL1       -0.0510
     19 O           1.3408    0.8344   -0.5139 O.2     1  UNL1       -0.4533
     20 H           0.0394    3.0028    0.5741 H       1  UNL1        0.0473
     21 H          -0.2278    2.9341   -1.2082 H       1  UNL1        0.0473
     22 H          -1.3651    3.8231   -0.1541 H       1  UNL1        0.0473
     23 H          -1.3745   -2.3655    0.4179 H       1  UNL1        0.0625
     24 H          -3.7277   -3.2145    0.5182 H       1  UNL1        0.0618
     25 H          -5.6785   -1.7344    0.3475 H       1  UNL1        0.0618
     26 H          -5.4507    0.7608    0.0526 H       1  UNL1        0.0639
     27 H           0.5440   -1.5220    1.6251 H       1  UNL1        0.0662
     28 H           3.8289    1.5326   -1.4641 H       1  UNL1        0.0654
     29 H           5.8860    0.3124   -0.7087 H       1  UNL1        0.0619
     30 H           5.7132   -1.5488    0.9074 H       1  UNL1        0.0618
     31 H           3.5045   -2.2476    1.8118 H       1  UNL1        0.0625
@<TRIPOS>BOND
     1     1     2    1
     2     2     3   ar
     3     3     4   ar
     4     4     5   ar
     5     5     6   ar
     6     6     7   ar
     7     7     8   ar
     8     8     9   ar
     9     5    10   ar
    10    10    11    1
    11    11    12   ar
    12    12    13   ar
    13    13    14   ar
    14    14    15   ar
    15    15    16   ar
    16    16    17   ar
    17    17    18   ar
    18    14    19   ar
    19    10     2   ar
    20     9     4   ar
    21    19    11   ar
    22    18    13   ar
    23     1    20    1
    24     1    21    1
    25     1    22    1
    26     6    23    1
    27     7    24    1
    28     8    25    1
    29     9    26    1
    30    12    27    1
    31    15    28    1
    32    16    29    1
    33    17    30    1
    34    18    31    1
