@<TRIPOS>MOLECULE
*****
 31 34 0 0 0
SMALL
GASTEIGER

@<TRIPOS>ATOM
      1 C          -0.1651    2.8048    1.5316 C.3     1  UNL1        0.0309
      2 N          -1.1438    1.8989    0.9731 N.ar    1  UNL1       -0.2651
      3 N          -2.4522    2.1509    1.2060 N.ar    1  UNL1       -0.1709
      4 C          -3.1082    1.1423    0.6126 C.ar    1  UNL1        0.0934
      5 C          -2.1582    0.2478   -0.0036 C.ar    1  UNL1        0.0281
      6 C          -2.4572   -0.9099   -0.7224 C.ar    1  UNL1       -0.0504
      7 C          -3.8477   -1.1356   -0.7830 C.ar    1  UNL1       -0.0610
      8 C          -4.8198   -0.2776   -0.1822 C.ar    1  UNL1       -0.0597
      9 C          -4.4886    0.8921    0.5361 C.ar    1  UNL1       -0.0340
     10 C          -0.9045    0.7602    0.2364 C.ar    1  UNL1        0.0829
     11 C           0.3922    0.2747   -0.1326 C.ar    1  UNL1        0.0389
     12 C           0.9640   -0.9171    0.2541 C.ar    1  UNL1       -0.0377
     13 C           2.2730   -1.1200   -0.2982 C.ar    1  UNL1       -0.0102
     14 C           2.6478   -0.0496   -1.1135 C.ar    1  UNL1        0.0200
     15 C           3.8943   -0.0237   -1.7689 C.ar    1  UNL1       -0.0474
     16 C           4.7716   -1.0965   -1.5948 C.ar    1  UNL1       -0.0607
     17 C           4.4211   -2.1714   -0.7896 C.ar    1  UNL1       -0.0611
     18 C           3.1825   -2.1934   -0.1415 C.ar    1  UNL1       -0.0535
     19 S           1.4138    1.1493   -1.1805 S.2     1  UNL1       -0.0867
     20 H           0.1343    3.5071    0.7502 H       1  UNL1        0.0473
     21 H           0.6923    2.2334    1.8948 H       1  UNL1        0.0473
     22 H          -0.6134    3.3465    2.3692 H       1  UNL1        0.0473
     23 H          -1.7343   -1.5636   -1.1906 H       1  UNL1        0.0625
     24 H          -4.2048   -2.0138   -1.3226 H       1  UNL1        0.0618
     25 H          -5.8730   -0.5388   -0.2872 H       1  UNL1        0.0618
     26 H          -5.2254    1.5417    0.9868 H       1  UNL1        0.0639
     27 H           0.4725   -1.6231    0.9130 H       1  UNL1        0.0635
     28 H           4.1702    0.8154   -2.4012 H       1  UNL1        0.0629
     29 H           5.7365   -1.0876   -2.0965 H       1  UNL1        0.0618
     30 H           5.1112   -3.0020   -0.6615 H       1  UNL1        0.0618
     31 H           2.9190   -3.0413    0.4859 H       1  UNL1        0.0624
@<TRIPOS>BOND
     1     1     2    1
     2     2     3   ar
     3     3     4   ar
     4     4     5   ar
     5     5     6   ar
     6     6     7   ar
     7     7     8   ar
     8     8     9   ar
     9     5    10   ar
    10    10    11    1
    11    11    12   ar
    12    12    13   ar
    13    13    14   ar
    14    14    15   ar
    15    15    16   ar
    16    16    17   ar
    17    17    18   ar
    18    14    19   ar
    19    10     2   ar
    20     9     4   ar
    21    19    11   ar
    22    18    13   ar
    23     1    20    1
    24     1    21    1
    25     1    22    1
    26     6    23    1
    27     7    24    1
    28     8    25    1
    29     9    26    1
    30    12    27    1
    31    15    28    1
    32    16    29    1
    33    17    30    1
    34    18    31    1
