@<TRIPOS>MOLECULE
*****
 37 39 0 0 0
SMALL
GASTEIGER

@<TRIPOS>ATOM
      1 C          -2.1305   -2.4024   -2.3855 C.3     1  UNL1        0.0340
      2 N          -2.2975   -1.3870   -1.3608 N.ar    1  UNL1       -0.2314
      3 N          -1.2334   -1.2179   -0.5091 N.ar    1  UNL1       -0.1632
      4 C          -1.3402   -0.3627    0.4670 C.ar    1  UNL1        0.1535
      5 C          -0.1120   -0.2352    1.3637 C.2     1  UNL1        0.2650
      6 O          -0.2180   -0.2024    2.5783 O.2     1  UNL1       -0.2684
      7 N           1.0680   -0.1979    0.6585 N.am    1  UNL1       -0.3059
      8 C           2.3298   -0.3170    1.3416 C.3     1  UNL1        0.0372
      9 C           3.4735   -0.0716    0.3945 C.ar    1  UNL1       -0.0301
     10 C           4.1232   -1.1464   -0.2333 C.ar    1  UNL1       -0.0544
     11 C           5.1668   -0.9124   -1.1302 C.ar    1  UNL1       -0.0261
     12 C           5.5555    0.3931   -1.4051 C.ar    1  UNL1        0.1234
     13 F           6.5562    0.6157   -2.2672 F       1  UNL1       -0.2055
     14 C           4.9188    1.4712   -0.8026 C.ar    1  UNL1       -0.0261
     15 C           3.8751    1.2402    0.0946 C.ar    1  UNL1       -0.0544
     16 C          -2.5350    0.4607    0.7087 C.ar    1  UNL1        0.0195
     17 C          -2.6187    1.4268    1.7190 C.ar    1  UNL1       -0.0516
     18 C          -3.7918    2.1694    1.8820 C.ar    1  UNL1       -0.0611
     19 C          -4.8802    1.9558    1.0383 C.ar    1  UNL1       -0.0610
     20 C          -4.7960    1.0007    0.0261 C.ar    1  UNL1       -0.0487
     21 C          -3.6195    0.2564   -0.1388 C.ar    1  UNL1        0.0503
     22 C          -3.5228   -0.7398   -1.2232 C.ar    1  UNL1        0.2748
     23 O          -4.4965   -0.9429   -1.9441 O.2     1  UNL1       -0.2656
     24 H          -2.2820   -3.3838   -1.9271 H       1  UNL1        0.0474
     25 H          -1.1185   -2.3399   -2.7965 H       1  UNL1        0.0474
     26 H          -2.8533   -2.2702   -3.1951 H       1  UNL1        0.0474
     27 H           1.0084   -0.4983   -0.3101 H       1  UNL1        0.1494
     28 H           2.3909   -1.3217    1.7766 H       1  UNL1        0.0512
     29 H           2.3598    0.3924    2.1772 H       1  UNL1        0.0512
     30 H           3.8200   -2.1709   -0.0265 H       1  UNL1        0.0622
     31 H           5.6769   -1.7378   -1.6165 H       1  UNL1        0.0646
     32 H           5.2366    2.4821   -1.0367 H       1  UNL1        0.0646
     33 H           3.3729    2.0867    0.5589 H       1  UNL1        0.0622
     34 H          -1.7915    1.6203    2.3973 H       1  UNL1        0.0624
     35 H          -3.8561    2.9146    2.6724 H       1  UNL1        0.0618
     36 H          -5.7931    2.5329    1.1671 H       1  UNL1        0.0618
     37 H          -5.6456    0.8390   -0.6350 H       1  UNL1        0.0625
@<TRIPOS>BOND
     1     1     2    1
     2     2     3   ar
     3     3     4   ar
     4     4     5    1
     5     5     6    2
     6     5     7   am
     7     7     8    1
     8     8     9    1
     9     9    10   ar
    10    10    11   ar
    11    11    12   ar
    12    12    13    1
    13    12    14   ar
    14    14    15   ar
    15     4    16   ar
    16    16    17   ar
    17    17    18   ar
    18    18    19   ar
    19    19    20   ar
    20    20    21   ar
    21    21    22   ar
    22    22    23    2
    23    22     2   ar
    24    15     9   ar
    25    21    16   ar
    26     1    24    1
    27     1    25    1
    28     1    26    1
    29     7    27    1
    30     8    28    1
    31     8    29    1
    32    10    30    1
    33    11    31    1
    34    14    32    1
    35    15    33    1
    36    17    34    1
    37    18    35    1
    38    19    36    1
    39    20    37    1
