@<TRIPOS>MOLECULE
*****
 26 28 0 0 0
SMALL
GASTEIGER

@<TRIPOS>ATOM
      1 C           3.6854    1.1539   -1.1788 C.3     1  UNL1        0.0311
      2 N           3.2474    0.6540    0.1028 N.ar    1  UNL1       -0.2600
      3 N           4.1406    0.5141    1.1177 N.ar    1  UNL1       -0.1770
      4 C           3.4007    0.0376    2.1311 C.ar    1  UNL1        0.0774
      5 C           2.0704   -0.1148    1.7483 C.ar    1  UNL1        0.1377
      6 N           0.9717   -0.5670    2.4535 N.ar    1  UNL1       -0.1273
      7 N          -0.1369   -0.6060    1.8591 N.ar    1  UNL1       -0.0570
      8 N          -0.3071   -0.2137    0.5211 N.ar    1  UNL1       -0.1764
      9 C          -1.6666   -0.3467    0.0586 C.ar    1  UNL1        0.0709
     10 C          -2.6682   -0.8309    0.9266 C.ar    1  UNL1       -0.0361
     11 C          -3.9983   -0.9735    0.5132 C.ar    1  UNL1       -0.0598
     12 C          -4.3641   -0.6350   -0.7826 C.ar    1  UNL1       -0.0616
     13 C          -3.3997   -0.1554   -1.6603 C.ar    1  UNL1       -0.0598
     14 C          -2.0683   -0.0134   -1.2441 C.ar    1  UNL1       -0.0361
     15 C           0.7651    0.2595   -0.2670 C.ar    1  UNL1        0.3004
     16 O           0.7212    0.6242   -1.4368 O.2     1  UNL1       -0.2634
     17 C           1.9868    0.2807    0.4562 C.ar    1  UNL1        0.1548
     18 H           4.7577    1.3631   -1.1406 H       1  UNL1        0.0473
     19 H           3.1370    2.0734   -1.3970 H       1  UNL1        0.0473
     20 H           3.4845    0.3909   -1.9346 H       1  UNL1        0.0473
     21 H           3.8716   -0.1692    3.0826 H       1  UNL1        0.0870
     22 H          -2.4396   -1.1115    1.9524 H       1  UNL1        0.0639
     23 H          -4.7442   -1.3498    1.2090 H       1  UNL1        0.0618
     24 H          -5.3952   -0.7440   -1.1079 H       1  UNL1        0.0618
     25 H          -3.6765    0.1125   -2.6775 H       1  UNL1        0.0618
     26 H          -1.3754    0.3670   -1.9866 H       1  UNL1        0.0639
@<TRIPOS>BOND
     1     1     2    1
     2     2     3   ar
     3     3     4   ar
     4     4     5   ar
     5     5     6   ar
     6     6     7   ar
     7     7     8   ar
     8     8     9    1
     9     9    10   ar
    10    10    11   ar
    11    11    12   ar
    12    12    13   ar
    13    13    14   ar
    14     8    15   ar
    15    15    16    2
    16    15    17   ar
    17    17     2   ar
    18    17     5   ar
    19    14     9   ar
    20     1    18    1
    21     1    19    1
    22     1    20    1
    23     4    21    1
    24    10    22    1
    25    11    23    1
    26    12    24    1
    27    13    25    1
    28    14    26    1
