@<TRIPOS>MOLECULE
*****
 24 25 0 0 0
SMALL
GASTEIGER

@<TRIPOS>ATOM
      1 C          -3.3923    0.8312   -0.9577 C.3     1  UNL1        0.0310
      2 N          -2.6931   -0.2640   -0.3229 N.ar    1  UNL1       -0.2636
      3 N          -3.3572   -1.4147   -0.0904 N.ar    1  UNL1       -0.1793
      4 C          -2.4569   -2.1894    0.5102 C.ar    1  UNL1        0.0501
      5 C          -1.2137   -1.5505    0.6434 C.ar    1  UNL1       -0.0131
      6 C          -1.3747   -0.2969    0.0745 C.ar    1  UNL1        0.1085
      7 C          -0.4478    0.8077   -0.0684 C.2     1  UNL1        0.2109
      8 O          -0.8089    1.9637   -0.2787 O.2     1  UNL1       -0.2850
      9 C           1.0159    0.5688    0.0509 C.ar    1  UNL1        0.0239
     10 C           1.7910    1.4969    0.7595 C.ar    1  UNL1       -0.0495
     11 C           3.1713    1.3137    0.8752 C.ar    1  UNL1       -0.0427
     12 C           3.7761    0.2120    0.2713 C.ar    1  UNL1        0.0410
     13 CL          5.4753   -0.0137    0.4129 Cl      1  UNL1       -0.0835
     14 C           3.0147   -0.7046   -0.4541 C.ar    1  UNL1       -0.0427
     15 C           1.6333   -0.5245   -0.5714 C.ar    1  UNL1       -0.0495
     16 H          -2.8293    1.1412   -1.8413 H       1  UNL1        0.0473
     17 H          -4.3889    0.4985   -1.2609 H       1  UNL1        0.0473
     18 H          -3.4805    1.6475   -0.2370 H       1  UNL1        0.0473
     19 H          -2.7455   -3.1836    0.8273 H       1  UNL1        0.0848
     20 H          -0.3243   -1.9533    1.1072 H       1  UNL1        0.0655
     21 H           1.3216    2.3640    1.2211 H       1  UNL1        0.0625
     22 H           3.7664    2.0345    1.4303 H       1  UNL1        0.0632
     23 H           3.4915   -1.5541   -0.9370 H       1  UNL1        0.0632
     24 H           1.0562   -1.2304   -1.1641 H       1  UNL1        0.0625
@<TRIPOS>BOND
     1     1     2    1
     2     2     3   ar
     3     3     4   ar
     4     4     5   ar
     5     5     6   ar
     6     6     7    1
     7     7     8    2
     8     7     9    1
     9     9    10   ar
    10    10    11   ar
    11    11    12   ar
    12    12    13    1
    13    12    14   ar
    14    14    15   ar
    15     6     2   ar
    16    15     9   ar
    17     1    16    1
    18     1    17    1
    19     1    18    1
    20     4    19    1
    21     5    20    1
    22    10    21    1
    23    11    22    1
    24    14    23    1
    25    15    24    1
