@<TRIPOS>MOLECULE
*****
 33 34 0 0 0
SMALL
GASTEIGER

@<TRIPOS>ATOM
      1 C           3.9943    2.9012   -0.3590 C.3     1  UNL1        0.0004
      2 N           3.0884    1.8171   -0.6389 N.am    1  UNL1       -0.3132
      3 C           3.2658    0.9395   -1.6740 C.2     1  UNL1        0.2624
      4 O           4.2355    1.0041   -2.4267 O.2     1  UNL1       -0.2685
      5 C           2.2662   -0.0857   -1.8600 C.ar    1  UNL1        0.1336
      6 N           2.4139   -1.0113   -2.8755 N.ar    1  UNL1       -0.3402
      7 C           1.3636   -1.8742   -2.8476 C.ar    1  UNL1        0.0948
      8 N           0.5280   -1.5726   -1.8845 N.ar    1  UNL1       -0.2305
      9 C           1.0707   -0.4500   -1.2509 C.ar    1  UNL1        0.1556
     10 C           0.3706    0.1603   -0.1110 C.2     1  UNL1        0.2688
     11 O           0.8006    1.1525    0.4651 O.2     1  UNL1       -0.2681
     12 N          -0.7846   -0.5342    0.1830 N.am    1  UNL1       -0.2800
     13 C          -1.7434   -0.2870    1.1853 C.ar    1  UNL1        0.0366
     14 C          -1.6452    0.7980    2.0644 C.ar    1  UNL1       -0.0402
     15 C          -2.6137    1.0159    3.0479 C.ar    1  UNL1       -0.0600
     16 C          -3.6948    0.1516    3.1661 C.ar    1  UNL1       -0.0614
     17 C          -3.8087   -0.9330    2.2997 C.ar    1  UNL1       -0.0571
     18 C          -2.8428   -1.1657    1.3043 C.ar    1  UNL1       -0.0292
     19 C          -3.0209   -2.3576    0.4009 C.3     1  UNL1       -0.0380
     20 H           4.2711    2.8499    0.6975 H       1  UNL1        0.0426
     21 H           4.8947    2.8509   -0.9751 H       1  UNL1        0.0426
     22 H           3.4701    3.8417   -0.5475 H       1  UNL1        0.0426
     23 H           2.2496    1.7516   -0.0651 H       1  UNL1        0.1487
     24 H           3.1953   -1.0248   -3.5193 H       1  UNL1        0.1670
     25 H           1.2634   -2.6942   -3.5472 H       1  UNL1        0.1027
     26 H          -0.9273   -1.3344   -0.4287 H       1  UNL1        0.1552
     27 H          -0.8222    1.5030    2.0123 H       1  UNL1        0.0636
     28 H          -2.5187    1.8653    3.7193 H       1  UNL1        0.0618
     29 H          -4.4482    0.3209    3.9308 H       1  UNL1        0.0618
     30 H          -4.6612   -1.6007    2.4061 H       1  UNL1        0.0621
     31 H          -3.1072   -2.0356   -0.6417 H       1  UNL1        0.0278
     32 H          -3.9288   -2.9189    0.6461 H       1  UNL1        0.0278
     33 H          -2.1741   -3.0436    0.5062 H       1  UNL1        0.0278
@<TRIPOS>BOND
     1     1     2    1
     2     2     3   am
     3     3     4    2
     4     3     5    1
     5     5     6   ar
     6     6     7   ar
     7     7     8   ar
     8     8     9   ar
     9     9    10    1
    10    10    11    2
    11    10    12   am
    12    12    13    1
    13    13    14   ar
    14    14    15   ar
    15    15    16   ar
    16    16    17   ar
    17    17    18   ar
    18    18    19    1
    19     9     5   ar
    20    18    13   ar
    21     1    20    1
    22     1    21    1
    23     1    22    1
    24     2    23    1
    25     6    24    1
    26     7    25    1
    27    12    26    1
    28    14    27    1
    29    15    28    1
    30    16    29    1
    31    17    30    1
    32    19    31    1
    33    19    32    1
    34    19    33    1
