@<TRIPOS>MOLECULE
*****
 33 34 0 0 0
SMALL
GASTEIGER

@<TRIPOS>ATOM
      1 C           4.9789   -0.6834    0.4165 C.3     1  UNL1        0.0001
      2 N           3.6997   -0.4001    1.0190 N.am    1  UNL1       -0.3171
      3 C           2.6044   -0.1235    0.2167 C.2     1  UNL1        0.2306
      4 O           2.6302   -0.2408   -1.0060 O.2     1  UNL1       -0.2741
      5 C           1.3471    0.2648    1.0096 C.3     1  UNL1        0.0961
      6 N           0.3623    0.9641    0.1896 N.am    1  UNL1       -0.2592
      7 C           0.6658    2.3119   -0.0499 C.2     1  UNL1        0.2305
      8 O           1.7188    2.8308    0.3319 O.2     1  UNL1       -0.2743
      9 C          -0.3291    3.1055   -0.8600 C.3     1  UNL1        0.0768
     10 S          -1.9342    3.0326   -0.0580 S.3     1  UNL1       -0.0947
     11 C          -2.0788    1.2588   -0.0985 C.ar    1  UNL1        0.1193
     12 N          -3.3626    0.8348   -0.1930 N.ar    1  UNL1       -0.2438
     13 C          -3.5873   -0.4881   -0.2542 C.ar    1  UNL1        0.0399
     14 C          -5.0112   -0.9449   -0.3501 C.3     1  UNL1       -0.0223
     15 C          -2.5500   -1.4077   -0.2652 C.ar    1  UNL1       -0.0359
     16 C          -1.2123   -0.9720   -0.1889 C.ar    1  UNL1       -0.0248
     17 C          -0.1677   -2.0416   -0.3607 C.3     1  UNL1       -0.0378
     18 C          -0.9512    0.4078   -0.0362 C.ar    1  UNL1        0.0717
     19 H           4.8632   -1.4165   -0.3863 H       1  UNL1        0.0426
     20 H           5.6463   -1.0763    1.1868 H       1  UNL1        0.0426
     21 H           5.3887    0.2437    0.0069 H       1  UNL1        0.0426
     22 H           3.7080    0.0000    1.9490 H       1  UNL1        0.1484
     23 H           1.6506    0.9339    1.8260 H       1  UNL1        0.0564
     24 H           0.9264   -0.6155    1.4972 H       1  UNL1        0.0564
     25 H          -0.3697    2.7150   -1.8821 H       1  UNL1        0.0475
     26 H          -0.0035    4.1491   -0.9060 H       1  UNL1        0.0475
     27 H          -5.1813   -1.4527   -1.3045 H       1  UNL1        0.0292
     28 H          -5.2450   -1.6313    0.4697 H       1  UNL1        0.0292
     29 H          -5.6985   -0.0949   -0.2877 H       1  UNL1        0.0292
     30 H          -2.7808   -2.4662   -0.3628 H       1  UNL1        0.0639
     31 H           0.2161   -2.3828    0.6035 H       1  UNL1        0.0278
     32 H          -0.5852   -2.9194   -0.8688 H       1  UNL1        0.0278
     33 H           0.6421   -1.6952   -1.0034 H       1  UNL1        0.0278
@<TRIPOS>BOND
     1     1     2    1
     2     2     3   am
     3     3     4    2
     4     3     5    1
     5     5     6    1
     6     6     7   am
     7     7     8    2
     8     7     9    1
     9     9    10    1
    10    10    11    1
    11    11    12   ar
    12    12    13   ar
    13    13    14    1
    14    13    15   ar
    15    15    16   ar
    16    16    17    1
    17    16    18   ar
    18    18     6    1
    19    18    11   ar
    20     1    19    1
    21     1    20    1
    22     1    21    1
    23     2    22    1
    24     5    23    1
    25     5    24    1
    26     9    25    1
    27     9    26    1
    28    14    27    1
    29    14    28    1
    30    14    29    1
    31    15    30    1
    32    17    31    1
    33    17    32    1
    34    17    33    1
