@<TRIPOS>MOLECULE
*****
 34 36 0 0 0
SMALL
GASTEIGER

@<TRIPOS>ATOM
      1 C           5.0180   -0.5888    1.7453 C.3     1  UNL1        0.0001
      2 N           4.4609   -1.1105    0.5231 N.am    1  UNL1       -0.3177
      3 C           3.5556   -2.1531    0.5553 C.2     1  UNL1        0.2231
      4 O           3.2521   -2.7494    1.5856 O.2     1  UNL1       -0.2749
      5 C           2.9526   -2.5024   -0.7945 C.3     1  UNL1        0.0776
      6 S           1.2915   -1.7872   -0.9543 S.3     1  UNL1       -0.0749
      7 C           1.6488   -0.1008   -1.1174 C.ar    1  UNL1        0.2144
      8 N           2.8464    0.3558   -1.4213 N.ar    1  UNL1       -0.1011
      9 N           2.7159    1.7012   -1.5778 N.ar    1  UNL1       -0.0218
     10 N           1.4648    2.0818   -1.3872 N.ar    1  UNL1       -0.0382
     11 N           0.7545    0.9648   -1.0525 N.ar    1  UNL1       -0.1873
     12 C          -0.6274    1.0847   -0.7222 C.ar    1  UNL1        0.0736
     13 C          -1.2724    2.3155   -0.9630 C.ar    1  UNL1       -0.0324
     14 C          -2.6282    2.4880   -0.6662 C.ar    1  UNL1       -0.0143
     15 C          -3.3558    1.4385   -0.1200 C.ar    1  UNL1        0.1622
     16 C          -2.7188    0.2288    0.1627 C.ar    1  UNL1        0.1641
     17 C          -1.3662    0.0453   -0.1456 C.ar    1  UNL1        0.0093
     18 O          -3.3601   -0.8358    0.7456 O.3     1  UNL1       -0.4849
     19 C          -4.6077   -0.4409    1.3284 C.3     1  UNL1        0.1237
     20 C          -5.3887    0.4453    0.3724 C.3     1  UNL1        0.1237
     21 O          -4.6838    1.6679    0.1269 O.3     1  UNL1       -0.4849
     22 H           5.8662    0.0522    1.4948 H       1  UNL1        0.0426
     23 H           4.2503   -0.0048    2.2601 H       1  UNL1        0.0426
     24 H           5.3457   -1.4083    2.3905 H       1  UNL1        0.0426
     25 H           4.3974   -0.4721   -0.2667 H       1  UNL1        0.1484
     26 H           3.6022   -2.1803   -1.6147 H       1  UNL1        0.0475
     27 H           2.8775   -3.5931   -0.8565 H       1  UNL1        0.0475
     28 H          -0.7402    3.1606   -1.3990 H       1  UNL1        0.0640
     29 H          -3.1143    3.4382   -0.8717 H       1  UNL1        0.0656
     30 H          -0.9369   -0.9106    0.1257 H       1  UNL1        0.0677
     31 H          -5.1736   -1.3514    1.5489 H       1  UNL1        0.0731
     32 H          -4.4027    0.0726    2.2759 H       1  UNL1        0.0731
     33 H          -5.5627   -0.0554   -0.5882 H       1  UNL1        0.0731
     34 H          -6.3608    0.7037    0.8038 H       1  UNL1        0.0731
@<TRIPOS>BOND
     1     1     2    1
     2     2     3   am
     3     3     4    2
     4     3     5    1
     5     5     6    1
     6     6     7    1
     7     7     8   ar
     8     8     9   ar
     9     9    10   ar
    10    10    11   ar
    11    11    12    1
    12    12    13   ar
    13    13    14   ar
    14    14    15   ar
    15    15    16   ar
    16    16    17   ar
    17    16    18    1
    18    18    19    1
    19    19    20    1
    20    20    21    1
    21    11     7   ar
    22    17    12   ar
    23    21    15    1
    24     1    22    1
    25     1    23    1
    26     1    24    1
    27     2    25    1
    28     5    26    1
    29     5    27    1
    30    13    28    1
    31    14    29    1
    32    17    30    1
    33    19    31    1
    34    19    32    1
    35    20    33    1
    36    20    34    1
