@<TRIPOS>MOLECULE
*****
 38 44 0 0 0
SMALL
GASTEIGER

@<TRIPOS>ATOM
      1 SI         -4.1687    2.7920   -0.5961 Si      1  UNL1        0.0000
      2 C          -5.8713    1.9256   -0.6163 C.2     1  UNL1        0.0000
      3 C          -5.7945    0.5884   -0.4628 C.2     1  UNL1        0.0000
      4 C          -4.4166    0.1344   -0.3183 C.ar    1  UNL1        0.0000
      5 C          -3.4098    1.1362   -0.3606 C.ar    1  UNL1        0.0000
      6 C          -2.0585    0.8040   -0.2314 C.ar    1  UNL1        0.0000
      7 O          -0.9729    1.6364   -0.2495 O.2     1  UNL1        0.0000
      8 C           0.1396    0.8496   -0.0862 C.ar    1  UNL1        0.0000
      9 C           1.4449    1.3214   -0.0493 C.ar    1  UNL1        0.0000
     10 C           2.4190    0.3426    0.1259 C.ar    1  UNL1        0.0000
     11 N           2.1155   -0.9757    0.2513 N.ar    1  UNL1        0.0000
     12 C           0.8294   -1.4095    0.2115 C.ar    1  UNL1        0.0000
     13 C          -0.2027   -0.4958    0.0396 C.ar    1  UNL1        0.0000
     14 C          -1.5924   -0.4896   -0.0561 C.ar    1  UNL1        0.0000
     15 C          -2.5699   -1.5256   -0.0080 C.ar    1  UNL1        0.0000
     16 C          -2.4707   -2.8710    0.1479 C.ar    1  UNL1        0.0000
     17 O          -3.7467   -3.3830    0.1176 O.2     1  UNL1        0.0000
     18 C          -4.6182   -2.3328   -0.0585 C.ar    1  UNL1        0.0000
     19 C          -3.9232   -1.1512   -0.1420 C.ar    1  UNL1        0.0000
     20 C           3.8486    0.6554    0.1891 C.ar    1  UNL1        0.0000
     21 S           4.5034    2.2670    0.0559 S.2     1  UNL1        0.0000
     22 C           6.1506    1.7476    0.2259 C.ar    1  UNL1        0.0000
     23 C           6.1384    0.4078    0.3730 C.ar    1  UNL1        0.0000
     24 C           7.0356   -0.6549    0.5518 C.ar    1  UNL1        0.0000
     25 C           6.2282   -1.7956    0.6225 C.ar    1  UNL1        0.0000
     26 O           4.8757   -1.5417    0.5020 O.2     1  UNL1        0.0000
     27 C           4.8971   -0.1855    0.3537 C.ar    1  UNL1        0.0000
     28 H          -4.0591    3.6906    0.5802 H       1  UNL1        0.0000
     29 H          -3.8887    3.4140   -1.9143 H       1  UNL1        0.0000
     30 H          -6.7690    2.5112   -0.7425 H       1  UNL1        0.0000
     31 H          -6.6404   -0.0837   -0.4460 H       1  UNL1        0.0000
     32 H           1.6551    2.3757   -0.1518 H       1  UNL1        0.0000
     33 H           0.6837   -2.4775    0.3200 H       1  UNL1        0.0000
     34 H          -1.6782   -3.5923    0.2821 H       1  UNL1        0.0000
     35 H          -5.6630   -2.6068   -0.0995 H       1  UNL1        0.0000
     36 H           6.9728    2.4486    0.2047 H       1  UNL1        0.0000
     37 H           8.1132   -0.6329    0.6231 H       1  UNL1        0.0000
     38 H           6.4638   -2.8434    0.7544 H       1  UNL1        0.0000
@<TRIPOS>BOND
     1     1     2    1
     2     2     3    2
     3     3     4    1
     4     4     5   ar
     5     5     6   ar
     6     6     7   ar
     7     7     8   ar
     8     8     9   ar
     9     9    10   ar
    10    10    11   ar
    11    11    12   ar
    12    12    13   ar
    13    13    14   ar
    14    14    15   ar
    15    15    16   ar
    16    16    17   ar
    17    17    18   ar
    18    18    19   ar
    19    10    20    1
    20    20    21   ar
    21    21    22   ar
    22    22    23   ar
    23    23    24   ar
    24    24    25   ar
    25    25    26   ar
    26    26    27   ar
    27     5     1    1
    28    14     6   ar
    29    19    15   ar
    30    27    20   ar
    31    19     4   ar
    32    27    23   ar
    33    13     8   ar
    34     1    28    1
    35     1    29    1
    36     2    30    1
    37     3    31    1
    38     9    32    1
    39    12    33    1
    40    16    34    1
    41    18    35    1
    42    22    36    1
    43    24    37    1
    44    25    38    1
