@<TRIPOS>MOLECULE
*****
 36 38 0 0 0
SMALL
GASTEIGER

@<TRIPOS>ATOM
      1 C          -1.1610    4.1264   -0.1238 C.3     1  UNL1       -0.0029
      2 N          -0.8200    2.7683    0.2534 N.pl3   1  UNL1       -0.3521
      3 C           0.3695    2.1641   -0.0988 C.2     1  UNL1        0.0007
      4 C           0.7138    0.8628   -0.1384 C.2     1  UNL1        0.0490
      5 C           2.1606    0.5977   -0.4227 C.2     1  UNL1        0.2078
      6 O           2.8561    1.3823   -1.0679 O.2     1  UNL1       -0.2877
      7 C           2.7060   -0.7300    0.1275 C.3     1  UNL1        0.1668
      8 C           2.9560   -1.6880   -1.0449 C.3     1  UNL1       -0.0178
      9 C           4.0352   -0.4392    0.8367 C.3     1  UNL1       -0.0178
     10 O           1.8928   -1.3920    1.1033 O.3     1  UNL1       -0.4777
     11 C           0.5454   -1.3734    0.8532 C.ar    1  UNL1        0.1333
     12 C          -0.1553   -2.4998    1.2952 C.ar    1  UNL1       -0.0185
     13 C          -1.5221   -2.6166    1.0519 C.ar    1  UNL1       -0.0476
     14 C          -2.1889   -1.6069    0.3597 C.ar    1  UNL1        0.0184
     15 C          -3.6065   -1.7207    0.0511 C.ar    1  UNL1       -0.0443
     16 C          -4.2192   -0.7517   -0.6342 C.ar    1  UNL1        0.0236
     17 C          -3.5097    0.4503   -1.0947 C.ar    1  UNL1        0.3372
     18 O          -4.0966    1.3361   -1.7034 O.2     1  UNL1       -0.2452
     19 O          -2.1586    0.5291   -0.7877 O.2     1  UNL1       -0.4214
     20 C          -1.4784   -0.4703   -0.0493 C.ar    1  UNL1        0.1504
     21 C          -0.1092   -0.3062    0.2209 C.ar    1  UNL1        0.0714
     22 H          -1.3038    4.1994   -1.2063 H       1  UNL1        0.0425
     23 H          -0.3772    4.8267    0.1817 H       1  UNL1        0.0425
     24 H          -2.0923    4.4219    0.3684 H       1  UNL1        0.0425
     25 H          -1.6163    2.1349    0.2495 H       1  UNL1        0.1452
     26 H           1.1227    2.9169   -0.3413 H       1  UNL1        0.0785
     27 H           3.3452   -2.6489   -0.6898 H       1  UNL1        0.0272
     28 H           3.6647   -1.2683   -1.7671 H       1  UNL1        0.0272
     29 H           2.0264   -1.9044   -1.5838 H       1  UNL1        0.0272
     30 H           4.7743    0.0074    0.1630 H       1  UNL1        0.0272
     31 H           4.4626   -1.3550    1.2611 H       1  UNL1        0.0272
     32 H           3.8810    0.2524    1.6736 H       1  UNL1        0.0272
     33 H           0.3738   -3.2965    1.8133 H       1  UNL1        0.0654
     34 H          -2.0474   -3.5064    1.3906 H       1  UNL1        0.0626
     35 H          -4.1511   -2.5988    0.3817 H       1  UNL1        0.0627
     36 H          -5.2724   -0.8034   -0.8819 H       1  UNL1        0.0689
@<TRIPOS>BOND
     1     1     2    1
     2     2     3    1
     3     3     4    2
     4     4     5    1
     5     5     6    2
     6     5     7    1
     7     7     8    1
     8     7     9    1
     9     7    10    1
    10    10    11    1
    11    11    12   ar
    12    12    13   ar
    13    13    14   ar
    14    14    15   ar
    15    15    16   ar
    16    16    17   ar
    17    17    18    2
    18    17    19   ar
    19    19    20   ar
    20    20    21   ar
    21    21     4    1
    22    21    11   ar
    23    20    14   ar
    24     1    22    1
    25     1    23    1
    26     1    24    1
    27     2    25    1
    28     3    26    1
    29     8    27    1
    30     8    28    1
    31     8    29    1
    32     9    30    1
    33     9    31    1
    34     9    32    1
    35    12    33    1
    36    13    34    1
    37    15    35    1
    38    16    36    1
