@<TRIPOS>MOLECULE
*****
 28 29 0 0 0
SMALL
GASTEIGER

@<TRIPOS>ATOM
      1 C          -4.9849    0.6115    0.5028 C.3     1  UNL1       -0.0024
      2 N          -3.8390    1.4902    0.6525 N.pl3   1  UNL1       -0.3469
      3 C          -2.5543    0.9952    0.4085 C.ar    1  UNL1        0.0269
      4 C          -1.5079    1.9094    0.2331 C.ar    1  UNL1       -0.0403
      5 C          -0.1860    1.4832    0.0500 C.ar    1  UNL1       -0.0523
      6 C           0.1411    0.1215    0.0656 C.ar    1  UNL1       -0.0178
      7 C           1.5286   -0.3313   -0.1241 C.ar    1  UNL1       -0.0174
      8 C           2.2713    0.0707   -1.2504 C.ar    1  UNL1       -0.0468
      9 C           3.5886   -0.3568   -1.4355 C.ar    1  UNL1        0.0251
     10 C           4.1687   -1.1921   -0.4859 C.ar    1  UNL1        0.2914
     11 N           5.4771   -1.6189   -0.6655 N.1     1  UNL1       -0.2670
     12 C           6.5819   -1.9795   -0.8176 C.2     1  UNL1       -0.2278
     13 C           3.4650   -1.6085    0.6398 C.ar    1  UNL1        0.0251
     14 C           2.1479   -1.1768    0.8159 C.ar    1  UNL1       -0.0468
     15 C          -0.8986   -0.7926    0.2828 C.ar    1  UNL1       -0.0523
     16 C          -2.2204   -0.3604    0.4648 C.ar    1  UNL1       -0.0403
     17 H          -5.9024    1.1921    0.6428 H       1  UNL1        0.0425
     18 H          -5.0194    0.1674   -0.4976 H       1  UNL1        0.0425
     19 H          -4.9842   -0.1796    1.2593 H       1  UNL1        0.0425
     20 H          -3.9809    2.3988    0.2180 H       1  UNL1        0.1457
     21 H          -1.7125    2.9773    0.2424 H       1  UNL1        0.0636
     22 H           0.5909    2.2330   -0.0832 H       1  UNL1        0.0624
     23 H           1.8166    0.7154   -2.0008 H       1  UNL1        0.0626
     24 H           4.1481   -0.0411   -2.3115 H       1  UNL1        0.0694
     25 H           3.9307   -2.2579    1.3758 H       1  UNL1        0.0694
     26 H           1.6039   -1.4946    1.7041 H       1  UNL1        0.0626
     27 H          -0.6918   -1.8605    0.3114 H       1  UNL1        0.0624
     28 H          -2.9782   -1.1149    0.6514 H       1  UNL1        0.0636
@<TRIPOS>UNITY_ATOM_ATTR
11 1
charge 1
12 1
charge -1
@<TRIPOS>BOND
     1     1     2    1
     2     2     3    1
     3     3     4   ar
     4     4     5   ar
     5     5     6   ar
     6     6     7    1
     7     7     8   ar
     8     8     9   ar
     9     9    10   ar
    10    10    11    1
    11    11    12    3
    12    10    13   ar
    13    13    14   ar
    14     6    15   ar
    15    15    16   ar
    16    16     3   ar
    17    14     7   ar
    18     1    17    1
    19     1    18    1
    20     1    19    1
    21     2    20    1
    22     4    21    1
    23     5    22    1
    24     8    23    1
    25     9    24    1
    26    13    25    1
    27    14    26    1
    28    15    27    1
    29    16    28    1
