@<TRIPOS>MOLECULE
*****
 42 44 0 0 0
SMALL
GASTEIGER

@<TRIPOS>ATOM
      1 C           0.8544    5.0106    0.3063 C.3     1  UNL1       -0.0011
      2 N           0.6682    3.5715    0.2085 N.pl3   1  UNL1       -0.3315
      3 C          -0.6414    3.1572   -0.1117 C.ar    1  UNL1        0.1315
      4 N          -1.5906    4.1043   -0.2690 N.ar    1  UNL1       -0.2203
      5 C          -2.8242    3.7021   -0.6068 C.ar    1  UNL1        0.1187
      6 N          -3.2138    2.4431   -0.8155 N.ar    1  UNL1       -0.2352
      7 C          -2.2559    1.5184   -0.6315 C.ar    1  UNL1        0.0797
      8 C          -0.9392    1.8022   -0.2549 C.ar    1  UNL1        0.0656
      9 C          -0.0193    0.6687   -0.0560 C.ar    1  UNL1        0.0798
     10 C           1.2697    0.5399    0.4132 C.ar    1  UNL1       -0.0125
     11 C           1.5561   -0.8365    0.3445 C.ar    1  UNL1        0.0640
     12 C           2.8257   -1.5265    0.7182 C.3     1  UNL1       -0.0089
     13 C           3.7839   -1.6509   -0.4670 C.3     1  UNL1       -0.0504
     14 C           5.0736   -2.3512   -0.0699 C.3     1  UNL1       -0.0649
     15 N           0.5190   -1.5367   -0.1173 N.ar    1  UNL1       -0.1711
     16 N          -0.4748   -0.6309   -0.3104 N.ar    1  UNL1       -0.2357
     17 C          -1.8022   -0.8917   -0.7117 C.ar    1  UNL1        0.0455
     18 C          -2.2045   -2.3242   -0.9710 C.3     1  UNL1       -0.0105
     19 C          -2.4021   -3.1680    0.2946 C.3     1  UNL1       -0.0505
     20 C          -3.5336   -2.6701    1.1828 C.3     1  UNL1       -0.0649
     21 C          -2.6728    0.1272   -0.8737 C.ar    1  UNL1       -0.0141
     22 H           0.2328    5.4433    1.0978 H       1  UNL1        0.0426
     23 H           0.6443    5.5106   -0.6456 H       1  UNL1        0.0426
     24 H           1.8985    5.2157    0.5635 H       1  UNL1        0.0426
     25 H           1.3008    3.1609   -0.4740 H       1  UNL1        0.1471
     26 H          -3.5741    4.4764   -0.7276 H       1  UNL1        0.1048
     27 H           1.9254    1.3223    0.7673 H       1  UNL1        0.0657
     28 H           3.3122   -0.9701    1.5293 H       1  UNL1        0.0329
     29 H           2.5977   -2.5228    1.1180 H       1  UNL1        0.0329
     30 H           3.3058   -2.2107   -1.2802 H       1  UNL1        0.0266
     31 H           4.0216   -0.6566   -0.8645 H       1  UNL1        0.0266
     32 H           5.5952   -1.7963    0.7164 H       1  UNL1        0.0230
     33 H           4.8736   -3.3628    0.2974 H       1  UNL1        0.0230
     34 H           5.7434   -2.4292   -0.9320 H       1  UNL1        0.0230
     35 H          -3.1333   -2.3511   -1.5565 H       1  UNL1        0.0328
     36 H          -1.4490   -2.8028   -1.6074 H       1  UNL1        0.0328
     37 H          -2.6257   -4.1979   -0.0091 H       1  UNL1        0.0266
     38 H          -1.4771   -3.2098    0.8804 H       1  UNL1        0.0266
     39 H          -4.4727   -2.6065    0.6241 H       1  UNL1        0.0230
     40 H          -3.6841   -3.3590    2.0201 H       1  UNL1        0.0230
     41 H          -3.3109   -1.6837    1.6008 H       1  UNL1        0.0230
     42 H          -3.7004   -0.0284   -1.1836 H       1  UNL1        0.0657
@<TRIPOS>BOND
     1     1     2    1
     2     2     3    1
     3     3     4   ar
     4     4     5   ar
     5     5     6   ar
     6     6     7   ar
     7     7     8   ar
     8     8     9   ar
     9     9    10   ar
    10    10    11   ar
    11    11    12    1
    12    12    13    1
    13    13    14    1
    14    11    15   ar
    15    15    16   ar
    16    16    17   ar
    17    17    18    1
    18    18    19    1
    19    19    20    1
    20    17    21   ar
    21     8     3   ar
    22    21     7   ar
    23    16     9   ar
    24     1    22    1
    25     1    23    1
    26     1    24    1
    27     2    25    1
    28     5    26    1
    29    10    27    1
    30    12    28    1
    31    12    29    1
    32    13    30    1
    33    13    31    1
    34    14    32    1
    35    14    33    1
    36    14    34    1
    37    18    35    1
    38    18    36    1
    39    19    37    1
    40    19    38    1
    41    20    39    1
    42    20    40    1
    43    20    41    1
    44    21    42    1
