@<TRIPOS>MOLECULE
*****
 31 32 0 0 0
SMALL
GASTEIGER

@<TRIPOS>ATOM
      1 C           2.0088    3.6525    0.0923 C.3     1  UNL1        0.0003
      2 N           2.2569    2.7382   -1.0001 N.pl3   1  UNL1       -0.3163
      3 C           1.7831    1.4472   -0.7871 C.ar    1  UNL1        0.2223
      4 N           2.5314    0.4799   -1.2819 N.ar    1  UNL1       -0.1612
      5 C           2.0550   -0.7372   -1.0760 C.ar    1  UNL1        0.3236
      6 O           2.8431   -1.7475   -1.5891 O.3     1  UNL1       -0.4656
      7 C           2.3096   -3.0453   -1.3650 C.3     1  UNL1        0.0819
      8 N           0.9315   -1.0400   -0.4360 N.ar    1  UNL1       -0.1610
      9 C           0.2408   -0.0044    0.0235 C.ar    1  UNL1        0.2253
     10 N          -0.9294   -0.2476    0.7203 N.pl3   1  UNL1       -0.2951
     11 C          -1.4777   -1.6060    0.6612 C.3     1  UNL1        0.0384
     12 C          -2.7882   -1.6671    1.4601 C.3     1  UNL1        0.0635
     13 O          -3.8030   -0.7772    0.9692 O.3     1  UNL1       -0.3767
     14 C          -3.2753    0.3932    0.3249 C.3     1  UNL1        0.0635
     15 C          -1.9063    0.8388    0.8656 C.3     1  UNL1        0.0384
     16 N           0.6473    1.2517   -0.1278 N.ar    1  UNL1       -0.1808
     17 H           0.9383    3.8449    0.2236 H       1  UNL1        0.0426
     18 H           2.4294    3.2806    1.0332 H       1  UNL1        0.0426
     19 H           2.4863    4.6125   -0.1285 H       1  UNL1        0.0426
     20 H           3.2317    2.6366   -1.2643 H       1  UNL1        0.1486
     21 H           2.2396   -3.2678   -0.2944 H       1  UNL1        0.0661
     22 H           1.3377   -3.1671   -1.8561 H       1  UNL1        0.0661
     23 H           2.9982   -3.7706   -1.8094 H       1  UNL1        0.0661
     24 H          -0.7698   -2.3270    1.0864 H       1  UNL1        0.0487
     25 H          -1.6805   -1.8816   -0.3817 H       1  UNL1        0.0487
     26 H          -2.6072   -1.4147    2.5116 H       1  UNL1        0.0575
     27 H          -3.2002   -2.6809    1.4335 H       1  UNL1        0.0575
     28 H          -4.0095    1.1951    0.4525 H       1  UNL1        0.0575
     29 H          -3.2089    0.1790   -0.7484 H       1  UNL1        0.0575
     30 H          -1.6173    1.7633    0.3542 H       1  UNL1        0.0487
     31 H          -1.9955    1.0684    1.9340 H       1  UNL1        0.0487
@<TRIPOS>BOND
     1     1     2    1
     2     2     3    1
     3     3     4   ar
     4     4     5   ar
     5     5     6    1
     6     6     7    1
     7     5     8   ar
     8     8     9   ar
     9     9    10    1
    10    10    11    1
    11    11    12    1
    12    12    13    1
    13    13    14    1
    14    14    15    1
    15     9    16   ar
    16    16     3   ar
    17    15    10    1
    18     1    17    1
    19     1    18    1
    20     1    19    1
    21     2    20    1
    22     7    21    1
    23     7    22    1
    24     7    23    1
    25    11    24    1
    26    11    25    1
    27    12    26    1
    28    12    27    1
    29    14    28    1
    30    14    29    1
    31    15    30    1
    32    15    31    1
