@<TRIPOS>MOLECULE
*****
 47 48 0 0 0
SMALL
GASTEIGER

@<TRIPOS>ATOM
      1 C          -1.4010   -2.1052   -3.3332 C.3     1  UNL1        0.0817
      2 O          -1.0535   -1.4926   -2.0907 O.3     1  UNL1       -0.4666
      3 C          -1.9485   -0.5446   -1.6694 C.2     1  UNL1        0.3277
      4 O          -3.0027   -0.3001   -2.2433 O.2     1  UNL1       -0.2487
      5 C          -1.5081    0.0865   -0.3339 C.3     1  UNL1        0.1255
      6 C          -2.4109   -0.4345    0.7954 C.3     1  UNL1        0.0013
      7 C          -3.6643    0.3857    0.9898 C.ar    1  UNL1       -0.0451
      8 C          -3.6226    1.5679    1.7429 C.ar    1  UNL1       -0.0585
      9 C          -4.7744    2.3358    1.9198 C.ar    1  UNL1       -0.0615
     10 C          -5.9769    1.9325    1.3435 C.ar    1  UNL1       -0.0617
     11 C          -6.0279    0.7624    0.5884 C.ar    1  UNL1       -0.0615
     12 C          -4.8774   -0.0079    0.4113 C.ar    1  UNL1       -0.0585
     13 N          -0.1038   -0.2515   -0.0272 N.am    1  UNL1       -0.2858
     14 C           0.8997    0.5170   -0.5611 C.2     1  UNL1        0.3030
     15 O           0.6642    1.5025   -1.2529 O.2     1  UNL1       -0.2526
     16 N           2.1799    0.1056   -0.2420 N.am    1  UNL1       -0.2807
     17 C           2.5091   -0.9400    0.7293 C.3     1  UNL1        0.0422
     18 C           3.9907   -1.3524    0.7162 C.3     1  UNL1        0.0720
     19 C           4.3478   -2.2293   -0.4826 C.3     1  UNL1       -0.0372
     20 O           4.9156   -0.2616    0.7919 O.3     1  UNL1       -0.3708
     21 C           4.4496    1.0047    0.3048 C.3     1  UNL1        0.0720
     22 C           4.1009    1.8925    1.4977 C.3     1  UNL1       -0.0372
     23 C           3.3035    0.9143   -0.7147 C.3     1  UNL1        0.0422
     24 H          -2.3330   -2.6699   -3.2322 H       1  UNL1        0.0661
     25 H          -0.6017   -2.8014   -3.6019 H       1  UNL1        0.0661
     26 H          -1.4846   -1.3533   -4.1242 H       1  UNL1        0.0661
     27 H          -1.5813    1.1749   -0.4416 H       1  UNL1        0.0618
     28 H          -1.8645   -0.4283    1.7490 H       1  UNL1        0.0337
     29 H          -2.6799   -1.4860    0.6268 H       1  UNL1        0.0337
     30 H          -2.6906    1.9004    2.1954 H       1  UNL1        0.0620
     31 H          -4.7322    3.2514    2.5038 H       1  UNL1        0.0618
     32 H          -6.8728    2.5328    1.4767 H       1  UNL1        0.0618
     33 H          -6.9629    0.4524    0.1292 H       1  UNL1        0.0618
     34 H          -4.9355   -0.9101   -0.1941 H       1  UNL1        0.0620
     35 H           0.0887   -1.2387   -0.1019 H       1  UNL1        0.1511
     36 H           1.8771   -1.8186    0.5681 H       1  UNL1        0.0490
     37 H           2.2508   -0.5343    1.7144 H       1  UNL1        0.0490
     38 H           4.1712   -1.9603    1.6111 H       1  UNL1        0.0609
     39 H           4.2409   -1.6977   -1.4316 H       1  UNL1        0.0255
     40 H           5.3955   -2.5438   -0.4207 H       1  UNL1        0.0255
     41 H           3.7197   -3.1249   -0.5167 H       1  UNL1        0.0255
     42 H           5.3075    1.4680   -0.1969 H       1  UNL1        0.0609
     43 H           3.2851    1.4760    2.0953 H       1  UNL1        0.0255
     44 H           4.9629    1.9787    2.1685 H       1  UNL1        0.0255
     45 H           3.8141    2.8971    1.1719 H       1  UNL1        0.0255
     46 H           2.9741    1.9193   -1.0002 H       1  UNL1        0.0490
     47 H           3.6625    0.4286   -1.6286 H       1  UNL1        0.0490
@<TRIPOS>BOND
     1     1     2    1
     2     2     3    1
     3     3     4    2
     4     3     5    1
     5     5     6    1
     6     6     7    1
     7     7     8   ar
     8     8     9   ar
     9     9    10   ar
    10    10    11   ar
    11    11    12   ar
    12     5    13    1
    13    13    14   am
    14    14    15    2
    15    14    16   am
    16    16    17    1
    17    17    18    1
    18    18    19    1
    19    18    20    1
    20    20    21    1
    21    21    22    1
    22    21    23    1
    23    12     7   ar
    24    23    16    1
    25     1    24    1
    26     1    25    1
    27     1    26    1
    28     5    27    1
    29     6    28    1
    30     6    29    1
    31     8    30    1
    32     9    31    1
    33    10    32    1
    34    11    33    1
    35    12    34    1
    36    13    35    1
    37    17    36    1
    38    17    37    1
    39    18    38    1
    40    19    39    1
    41    19    40    1
    42    19    41    1
    43    21    42    1
    44    22    43    1
    45    22    44    1
    46    22    45    1
    47    23    46    1
    48    23    47    1
