@<TRIPOS>MOLECULE
*****
 33 33 0 0 0
SMALL
GASTEIGER

@<TRIPOS>ATOM
      1 C           5.6436    0.0549   -0.7149 C.3     1  UNL1        0.0818
      2 O           4.4651   -0.7239   -0.9361 O.3     1  UNL1       -0.4645
      3 C           3.3271   -0.1782   -0.4007 C.2     1  UNL1        0.3675
      4 O           3.3029    0.8682    0.2363 O.2     1  UNL1       -0.2453
      5 C           2.1161   -1.0934   -0.6832 C.3     1  UNL1        0.3319
      6 O           2.4866   -2.4468   -0.3425 O.3     1  UNL1       -0.3562
      7 N           1.0334   -0.8265    0.2411 N.am    1  UNL1       -0.2366
      8 C           0.2263    0.2553    0.1272 C.2     1  UNL1        0.4033
      9 O           0.2274    1.0187   -0.8235 O.2     1  UNL1       -0.2264
     10 O          -0.5565    0.3428    1.2235 O.3     1  UNL1       -0.4456
     11 C          -1.4837    1.4348    1.2367 C.3     1  UNL1        0.1191
     12 C          -2.8405    0.9471    0.8001 C.ar    1  UNL1       -0.0103
     13 C          -3.2356    1.0566   -0.5403 C.ar    1  UNL1       -0.0554
     14 C          -4.4841    0.5868   -0.9505 C.ar    1  UNL1       -0.0614
     15 C          -5.3458   -0.0027   -0.0275 C.ar    1  UNL1       -0.0617
     16 C          -4.9582   -0.1282    1.3054 C.ar    1  UNL1       -0.0614
     17 C          -3.7095    0.3402    1.7175 C.ar    1  UNL1       -0.0554
     18 C           1.8309   -0.9428   -2.2038 C.3     1  UNL1        0.4469
     19 F           1.9775    0.3105   -2.6786 F       1  UNL1       -0.1656
     20 F           2.7056   -1.7237   -2.9035 F       1  UNL1       -0.1656
     21 F           0.5935   -1.3818   -2.5376 F       1  UNL1       -0.1656
     22 H           6.4828   -0.4593   -1.1913 H       1  UNL1        0.0661
     23 H           5.8507    0.1385    0.3564 H       1  UNL1        0.0661
     24 H           5.5397    1.0446   -1.1704 H       1  UNL1        0.0661
     25 H           3.1753   -2.7039   -0.9877 H       1  UNL1        0.2129
     26 H           1.0238   -1.3206    1.1189 H       1  UNL1        0.1556
     27 H          -1.1485    2.2860    0.6310 H       1  UNL1        0.0749
     28 H          -1.5384    1.8053    2.2671 H       1  UNL1        0.0749
     29 H          -2.5671    1.5038   -1.2744 H       1  UNL1        0.0621
     30 H          -4.7809    0.6769   -1.9922 H       1  UNL1        0.0618
     31 H          -6.3169   -0.3700   -0.3486 H       1  UNL1        0.0618
     32 H          -5.6271   -0.5954    2.0235 H       1  UNL1        0.0618
     33 H          -3.4154    0.2260    2.7584 H       1  UNL1        0.0621
@<TRIPOS>BOND
     1     1     2    1
     2     2     3    1
     3     3     4    2
     4     3     5    1
     5     5     6    1
     6     5     7    1
     7     7     8   am
     8     8     9    2
     9     8    10    1
    10    10    11    1
    11    11    12    1
    12    12    13   ar
    13    13    14   ar
    14    14    15   ar
    15    15    16   ar
    16    16    17   ar
    17     5    18    1
    18    18    19    1
    19    18    20    1
    20    18    21    1
    21    17    12   ar
    22     1    22    1
    23     1    23    1
    24     1    24    1
    25     6    25    1
    26     7    26    1
    27    11    27    1
    28    11    28    1
    29    13    29    1
    30    14    30    1
    31    15    31    1
    32    16    32    1
    33    17    33    1
