@<TRIPOS>MOLECULE
*****
 35 36 0 0 0
SMALL
GASTEIGER

@<TRIPOS>ATOM
      1 C          -3.2432    1.3062    2.6899 C.3     1  UNL1        0.0817
      2 O          -1.9218    1.2364    2.1512 O.3     1  UNL1       -0.4674
      3 C          -1.8675    1.3652    0.7967 C.2     1  UNL1        0.3198
      4 O          -2.8400    1.4952    0.0636 O.2     1  UNL1       -0.2500
      5 C          -0.4499    1.2680    0.2922 C.3     1  UNL1        0.1441
      6 C           0.4371    2.3117    0.9222 C.2     1  UNL1        0.2324
      7 O           0.0380    3.4211    1.2662 O.2     1  UNL1       -0.2745
      8 N           1.7690    2.0147    0.9880 N.am    1  UNL1       -0.2788
      9 C           2.3409    0.8028    0.7407 C.2     1  UNL1        0.0813
     10 S           4.0631    0.8315    0.8962 S.3     1  UNL1       -0.1125
     11 C           4.5465    0.8614   -0.8473 C.3     1  UNL1       -0.0123
     12 C           1.5908   -0.2867    0.4985 C.2     1  UNL1        0.0656
     13 C           2.1846   -1.5816    0.3594 C.1     1  UNL1        0.0978
     14 N           2.6612   -2.6306    0.2267 N.1     1  UNL1       -0.1911
     15 C           0.0698   -0.1746    0.4701 C.3     1  UNL1        0.0453
     16 C          -0.5710   -1.0748   -0.5875 C.ar    1  UNL1       -0.0028
     17 C          -0.2380   -0.9779   -1.9494 C.ar    1  UNL1       -0.0552
     18 C          -0.8494   -1.8132   -2.8883 C.ar    1  UNL1       -0.0613
     19 C          -1.8007   -2.7496   -2.4839 C.ar    1  UNL1       -0.0590
     20 C          -2.1450   -2.8517   -1.1384 C.ar    1  UNL1       -0.0262
     21 C          -1.5336   -2.0190   -0.2069 C.ar    1  UNL1        0.1272
     22 F          -1.8870   -2.1263    1.0818 F       1  UNL1       -0.2052
     23 H          -3.1707    1.2138    3.7771 H       1  UNL1        0.0661
     24 H          -3.7038    2.2706    2.4539 H       1  UNL1        0.0661
     25 H          -3.8535    0.4802    2.3115 H       1  UNL1        0.0661
     26 H          -0.4742    1.5407   -0.7729 H       1  UNL1        0.0519
     27 H           2.3734    2.7593    1.3210 H       1  UNL1        0.1553
     28 H           5.6361    0.9181   -0.9170 H       1  UNL1        0.0344
     29 H           4.2136   -0.0447   -1.3603 H       1  UNL1        0.0344
     30 H           4.1203    1.7359   -1.3470 H       1  UNL1        0.0344
     31 H          -0.2474   -0.5419    1.4574 H       1  UNL1        0.0418
     32 H           0.4977   -0.2563   -2.2981 H       1  UNL1        0.0621
     33 H          -0.5842   -1.7340   -3.9405 H       1  UNL1        0.0618
     34 H          -2.2744   -3.3972   -3.2175 H       1  UNL1        0.0618
     35 H          -2.8867   -3.5727   -0.8094 H       1  UNL1        0.0646
@<TRIPOS>BOND
     1     1     2    1
     2     2     3    1
     3     3     4    2
     4     3     5    1
     5     5     6    1
     6     6     7    2
     7     6     8   am
     8     8     9    1
     9     9    10    1
    10    10    11    1
    11     9    12    2
    12    12    13    1
    13    13    14    3
    14    12    15    1
    15    15    16    1
    16    16    17   ar
    17    17    18   ar
    18    18    19   ar
    19    19    20   ar
    20    20    21   ar
    21    21    22    1
    22    15     5    1
    23    21    16   ar
    24     1    23    1
    25     1    24    1
    26     1    25    1
    27     5    26    1
    28     8    27    1
    29    11    28    1
    30    11    29    1
    31    11    30    1
    32    15    31    1
    33    17    32    1
    34    18    33    1
    35    19    34    1
    36    20    35    1
