@<TRIPOS>MOLECULE
*****
 33 34 0 0 0
SMALL
GASTEIGER

@<TRIPOS>ATOM
      1 C          -2.4228    1.5533    1.7550 C.3     1  UNL1        0.0817
      2 O          -2.2840    0.2706    1.1430 O.3     1  UNL1       -0.4674
      3 C          -2.2887    0.3030   -0.2205 C.2     1  UNL1        0.3195
      4 O          -2.4063    1.3169   -0.8970 O.2     1  UNL1       -0.2500
      5 C          -2.0603   -1.0777   -0.7724 C.3     1  UNL1        0.1404
      6 C          -2.9343   -1.3303   -1.9756 C.2     1  UNL1        0.2276
      7 O          -4.1406   -1.5071   -1.9699 O.2     1  UNL1       -0.2749
      8 N          -2.1486   -1.3074   -3.1135 N.am    1  UNL1       -0.3140
      9 C          -0.8197   -0.8562   -2.8182 C.3     1  UNL1        0.0196
     10 C          -0.6448   -1.2688   -1.3547 C.3     1  UNL1        0.0210
     11 C           0.4829   -0.6535   -0.5605 C.ar    1  UNL1       -0.0413
     12 C           1.0078   -1.3637    0.5315 C.ar    1  UNL1       -0.0548
     13 C           2.0368   -0.8312    1.3173 C.ar    1  UNL1       -0.0197
     14 C           2.5567    0.4278    1.0292 C.ar    1  UNL1        0.1201
     15 O           3.5547    1.0648    1.7124 O.3     1  UNL1       -0.4951
     16 C           4.1218    0.3714    2.8166 C.3     1  UNL1        0.0788
     17 C           2.0346    1.1447   -0.0475 C.ar    1  UNL1       -0.0197
     18 C           1.0074    0.6145   -0.8348 C.ar    1  UNL1       -0.0548
     19 H          -2.4051    1.4148    2.8395 H       1  UNL1        0.0661
     20 H          -3.3790    2.0086    1.4791 H       1  UNL1        0.0661
     21 H          -1.5874    2.2030    1.4754 H       1  UNL1        0.0661
     22 H          -2.2768   -1.8365   -0.0121 H       1  UNL1        0.0516
     23 H          -2.5937   -1.2696   -4.0236 H       1  UNL1        0.1487
     24 H          -0.7940    0.2242   -2.9849 H       1  UNL1        0.0468
     25 H          -0.1041   -1.3440   -3.4857 H       1  UNL1        0.0468
     26 H          -0.4537   -2.3546   -1.3792 H       1  UNL1        0.0377
     27 H           0.6171   -2.3479    0.7859 H       1  UNL1        0.0622
     28 H           2.4044   -1.4258    2.1468 H       1  UNL1        0.0654
     29 H           3.3732    0.1889    3.5947 H       1  UNL1        0.0660
     30 H           4.5952   -0.5625    2.4957 H       1  UNL1        0.0660
     31 H           4.9006    1.0083    3.2471 H       1  UNL1        0.0660
     32 H           2.4274    2.1335   -0.2740 H       1  UNL1        0.0654
     33 H           0.6233    1.2287   -1.6452 H       1  UNL1        0.0622
@<TRIPOS>BOND
     1     1     2    1
     2     2     3    1
     3     3     4    2
     4     3     5    1
     5     5     6    1
     6     6     7    2
     7     6     8   am
     8     8     9    1
     9     9    10    1
    10    10    11    1
    11    11    12   ar
    12    12    13   ar
    13    13    14   ar
    14    14    15    1
    15    15    16    1
    16    14    17   ar
    17    17    18   ar
    18    10     5    1
    19    18    11   ar
    20     1    19    1
    21     1    20    1
    22     1    21    1
    23     5    22    1
    24     8    23    1
    25     9    24    1
    26     9    25    1
    27    10    26    1
    28    12    27    1
    29    13    28    1
    30    16    29    1
    31    16    30    1
    32    16    31    1
    33    17    32    1
    34    18    33    1
