@<TRIPOS>MOLECULE
*****
 35 36 0 0 0
SMALL
GASTEIGER

@<TRIPOS>ATOM
      1 C           6.3763    1.2977   -0.5356 C.3     1  UNL1        0.0821
      2 O           5.0079    1.0176   -0.2414 O.3     1  UNL1       -0.4623
      3 C           4.7542   -0.3041    0.0047 C.2     1  UNL1        0.3746
      4 O           5.6099   -1.1815   -0.0108 O.2     1  UNL1       -0.2415
      5 C           3.3482   -0.4824    0.2830 C.ar    1  UNL1        0.2118
      6 C           2.2859    0.4019    0.3459 C.ar    1  UNL1       -0.0055
      7 C           1.1192   -0.3540    0.6593 C.ar    1  UNL1        0.0015
      8 C          -0.2691    0.1692    0.8395 C.3     1  UNL1        0.0390
      9 C          -1.1854   -0.1305   -0.3376 C.2     1  UNL1        0.1710
     10 O          -0.8247   -0.7494   -1.3405 O.2     1  UNL1       -0.2916
     11 C          -2.6039    0.3445   -0.2855 C.ar    1  UNL1        0.0593
     12 C          -3.1031    1.0484    0.8209 C.ar    1  UNL1       -0.0443
     13 C          -4.4336    1.4794    0.8405 C.ar    1  UNL1       -0.0193
     14 C          -5.2669    1.2106   -0.2387 C.ar    1  UNL1        0.1204
     15 O          -6.5542    1.6522   -0.1704 O.3     1  UNL1       -0.5066
     16 C          -4.7959    0.5152   -1.3445 C.ar    1  UNL1        0.0220
     17 C          -3.4689    0.0853   -1.3644 C.ar    1  UNL1        0.1308
     18 O          -3.0838   -0.5935   -2.4917 O.3     1  UNL1       -0.5059
     19 C           1.5509   -1.6639    0.7672 C.ar    1  UNL1        0.1066
     20 C           0.8680   -2.9456    1.0431 C.3     1  UNL1       -0.0061
     21 O           2.8907   -1.7442    0.5474 O.2     1  UNL1       -0.4531
     22 H           6.4695    2.3712   -0.7219 H       1  UNL1        0.0661
     23 H           7.0131    1.0385    0.3162 H       1  UNL1        0.0661
     24 H           6.6936    0.7623   -1.4360 H       1  UNL1        0.0661
     25 H           2.3508    1.4687    0.1786 H       1  UNL1        0.0660
     26 H          -0.2226    1.2563    0.9739 H       1  UNL1        0.0395
     27 H          -0.6980   -0.2784    1.7435 H       1  UNL1        0.0395
     28 H          -2.4883    1.2798    1.6852 H       1  UNL1        0.0627
     29 H          -4.8210    2.0251    1.6976 H       1  UNL1        0.0654
     30 H          -7.0156    1.3943   -0.9867 H       1  UNL1        0.2921
     31 H          -5.4358    0.2984   -2.1939 H       1  UNL1        0.0691
     32 H          -2.1364   -0.8431   -2.3888 H       1  UNL1        0.2922
     33 H           0.6400   -3.4615    0.1050 H       1  UNL1        0.0308
     34 H           1.4995   -3.6000    1.6530 H       1  UNL1        0.0308
     35 H          -0.0701   -2.7843    1.5836 H       1  UNL1        0.0308
@<TRIPOS>BOND
     1     1     2    1
     2     2     3    1
     3     3     4    2
     4     3     5    1
     5     5     6   ar
     6     6     7   ar
     7     7     8    1
     8     8     9    1
     9     9    10    2
    10     9    11    1
    11    11    12   ar
    12    12    13   ar
    13    13    14   ar
    14    14    15    1
    15    14    16   ar
    16    16    17   ar
    17    17    18    1
    18     7    19   ar
    19    19    20    1
    20    19    21   ar
    21    21     5   ar
    22    17    11   ar
    23     1    22    1
    24     1    23    1
    25     1    24    1
    26     6    25    1
    27     8    26    1
    28     8    27    1
    29    12    28    1
    30    13    29    1
    31    15    30    1
    32    16    31    1
    33    18    32    1
    34    20    33    1
    35    20    34    1
    36    20    35    1
