@<TRIPOS>MOLECULE
*****
 39 41 0 0 0
SMALL
GASTEIGER

@<TRIPOS>ATOM
      1 C           5.9889    0.4702    3.6774 C.3     1  UNL1        0.0820
      2 O           5.4229    0.3989    2.3685 O.3     1  UNL1       -0.4644
      3 C           4.2172   -0.2378    2.3161 C.2     1  UNL1        0.3423
      4 O           3.6496   -0.7140    3.2926 O.2     1  UNL1       -0.2448
      5 C           3.6568   -0.2983    0.9764 C.ar    1  UNL1        0.0998
      6 C           2.4226   -0.9081    0.5969 C.ar    1  UNL1       -0.0030
      7 C           2.2808   -0.7263   -0.7614 C.ar    1  UNL1        0.1433
      8 C           1.2387   -1.1180   -1.7431 C.3     1  UNL1        0.1502
      9 O          -0.0038   -0.6302   -1.2279 O.3     1  UNL1       -0.4522
     10 C          -1.0710   -0.9401   -2.0099 C.2     1  UNL1        0.3581
     11 O          -1.0104   -1.5779   -3.0495 O.2     1  UNL1       -0.2432
     12 C          -2.3318   -0.3924   -1.4060 C.ar    1  UNL1        0.1483
     13 C          -2.3186    0.3738   -0.2456 C.ar    1  UNL1       -0.0287
     14 C          -3.5313    0.8422    0.2510 C.ar    1  UNL1       -0.0503
     15 C          -4.7226    0.5354   -0.4169 C.ar    1  UNL1        0.0004
     16 C          -5.9695    0.9848    0.0518 C.ar    1  UNL1       -0.0526
     17 C          -7.1373    0.6595   -0.6350 C.ar    1  UNL1       -0.0611
     18 C          -7.0635   -0.1115   -1.7894 C.ar    1  UNL1       -0.0597
     19 C          -5.8213   -0.5547   -2.2528 C.ar    1  UNL1       -0.0357
     20 C          -4.6425   -0.2469   -1.5880 C.ar    1  UNL1        0.0719
     21 N          -3.4755   -0.6998   -2.0733 N.ar    1  UNL1       -0.2401
     22 O           3.3553   -0.0459   -1.2472 O.2     1  UNL1       -0.4606
     23 C           4.1870    0.2122   -0.1981 C.ar    1  UNL1        0.1163
     24 C           5.4228    0.9538   -0.5335 C.3     1  UNL1       -0.0055
     25 H           5.3383    1.0427    4.3456 H       1  UNL1        0.0661
     26 H           6.1672   -0.5340    4.0740 H       1  UNL1        0.0661
     27 H           6.9494    0.9881    3.6030 H       1  UNL1        0.0661
     28 H           1.7239   -1.4156    1.2487 H       1  UNL1        0.0661
     29 H           1.4393   -0.6657   -2.7208 H       1  UNL1        0.0780
     30 H           1.2105   -2.2099   -1.8332 H       1  UNL1        0.0780
     31 H          -1.3956    0.6112    0.2723 H       1  UNL1        0.0641
     32 H          -3.5404    1.4442    1.1561 H       1  UNL1        0.0625
     33 H          -6.0372    1.5878    0.9544 H       1  UNL1        0.0624
     34 H          -8.1009    1.0065   -0.2703 H       1  UNL1        0.0618
     35 H          -7.9678   -0.3721   -2.3329 H       1  UNL1        0.0618
     36 H          -5.7712   -1.1575   -3.1572 H       1  UNL1        0.0639
     37 H           6.3073    0.3713   -0.2586 H       1  UNL1        0.0308
     38 H           5.4528    1.9098   -0.0020 H       1  UNL1        0.0308
     39 H           5.4808    1.1641   -1.6065 H       1  UNL1        0.0308
@<TRIPOS>BOND
     1     1     2    1
     2     2     3    1
     3     3     4    2
     4     3     5    1
     5     5     6   ar
     6     6     7   ar
     7     7     8    1
     8     8     9    1
     9     9    10    1
    10    10    11    2
    11    10    12    1
    12    12    13   ar
    13    13    14   ar
    14    14    15   ar
    15    15    16   ar
    16    16    17   ar
    17    17    18   ar
    18    18    19   ar
    19    19    20   ar
    20    20    21   ar
    21     7    22   ar
    22    22    23   ar
    23    23    24    1
    24    23     5   ar
    25    21    12   ar
    26    20    15   ar
    27     1    25    1
    28     1    26    1
    29     1    27    1
    30     6    28    1
    31     8    29    1
    32     8    30    1
    33    13    31    1
    34    14    32    1
    35    16    33    1
    36    17    34    1
    37    18    35    1
    38    19    36    1
    39    24    37    1
    40    24    38    1
    41    24    39    1
