@<TRIPOS>MOLECULE
*****
 39 45 0 0 0
SMALL
GASTEIGER

@<TRIPOS>ATOM
      1 SI         -4.0903   -0.3551    2.7734 Si      1  UNL1        0.0000
      2 C          -5.6237   -0.6885    1.7345 C.2     1  UNL1        0.0000
      3 C          -5.3711   -0.7071    0.4121 C.2     1  UNL1        0.0000
      4 C          -3.9520   -0.4634    0.0565 C.ar    1  UNL1        0.0000
      5 C          -3.1485   -0.2591    1.2031 C.ar    1  UNL1        0.0000
      6 C          -1.7954   -0.0174    1.0511 C.ar    1  UNL1        0.0000
      7 O          -0.9129    0.1956    2.0657 O.2     1  UNL1        0.0000
      8 C           0.2888    0.3855    1.4564 C.ar    1  UNL1        0.0000
      9 C           1.5771    0.6454    1.9579 C.ar    1  UNL1        0.0000
     10 C           2.4638    0.7435    0.9001 C.ar    1  UNL1        0.0000
     11 S           1.7080    0.5517   -0.6463 S.2     1  UNL1        0.0000
     12 C           0.1680    0.2989    0.1097 C.ar    1  UNL1        0.0000
     13 C          -1.1977    0.0309   -0.2047 C.ar    1  UNL1        0.0000
     14 C          -1.9952   -0.1736   -1.3702 C.ar    1  UNL1        0.0000
     15 C          -1.4042   -0.1285   -2.6505 C.ar    1  UNL1        0.0000
     16 C          -2.1745   -0.3269   -3.7950 C.ar    1  UNL1        0.0000
     17 C          -3.5379   -0.5718   -3.6804 C.ar    1  UNL1        0.0000
     18 C          -4.1398   -0.6201   -2.4199 C.ar    1  UNL1        0.0000
     19 C          -3.3931   -0.4243   -1.2375 C.ar    1  UNL1        0.0000
     20 C           3.8702    1.0168    0.9980 C.ar    1  UNL1        0.0000
     21 S           4.4896    2.3969    1.8346 S.2     1  UNL1        0.0000
     22 C           6.1280    1.9990    1.4860 C.ar    1  UNL1        0.0000
     23 C           6.1342    0.8470    0.7800 C.ar    1  UNL1        0.0000
     24 C           7.1735    0.0500    0.2443 C.ar    1  UNL1        0.0000
     25 C           6.6892   -1.0875   -0.4109 C.ar    1  UNL1        0.0000
     26 S           4.9430   -1.2920   -0.4316 S.2     1  UNL1        0.0000
     27 C           4.8988    0.2645    0.4913 C.ar    1  UNL1        0.0000
     28 H          -4.2154    0.9352    3.4972 H       1  UNL1        0.0000
     29 H          -3.7615   -1.5306    3.6188 H       1  UNL1        0.0000
     30 H          -6.5828   -0.8419    2.2048 H       1  UNL1        0.0000
     31 H          -6.1308   -0.8838   -0.3360 H       1  UNL1        0.0000
     32 H           1.8348    0.7452    3.0036 H       1  UNL1        0.0000
     33 H          -0.3415    0.0603   -2.7729 H       1  UNL1        0.0000
     34 H          -1.7082   -0.2901   -4.7763 H       1  UNL1        0.0000
     35 H          -4.1388   -0.7267   -4.5731 H       1  UNL1        0.0000
     36 H          -5.2081   -0.8146   -2.3765 H       1  UNL1        0.0000
     37 H           6.9471    2.6185    1.8228 H       1  UNL1        0.0000
     38 H           8.2315    0.2696    0.3209 H       1  UNL1        0.0000
     39 H           7.2777   -1.8516   -0.9005 H       1  UNL1        0.0000
@<TRIPOS>BOND
     1     1     2    1
     2     2     3    2
     3     3     4    1
     4     4     5   ar
     5     5     6   ar
     6     6     7   ar
     7     7     8   ar
     8     8     9   ar
     9     9    10   ar
    10    10    11   ar
    11    11    12   ar
    12    12    13   ar
    13    13    14   ar
    14    14    15   ar
    15    15    16   ar
    16    16    17   ar
    17    17    18   ar
    18    18    19   ar
    19    10    20    1
    20    20    21   ar
    21    21    22   ar
    22    22    23   ar
    23    23    24   ar
    24    24    25   ar
    25    25    26   ar
    26    26    27   ar
    27     5     1    1
    28    13     6   ar
    29    19    14   ar
    30    27    20   ar
    31    19     4   ar
    32    27    23   ar
    33    12     8   ar
    34     1    28    1
    35     1    29    1
    36     2    30    1
    37     3    31    1
    38     9    32    1
    39    15    33    1
    40    16    34    1
    41    17    35    1
    42    18    36    1
    43    22    37    1
    44    24    38    1
    45    25    39    1
