@<TRIPOS>MOLECULE
*****
 42 46 0 0 0
SMALL
GASTEIGER

@<TRIPOS>ATOM
      1 C           7.1577    2.4413   -1.4065 C.3     1  UNL1        0.0820
      2 O           6.4936    1.4523   -0.6203 O.3     1  UNL1       -0.4641
      3 C           5.1377    1.4330   -0.7715 C.2     1  UNL1        0.3456
      4 O           4.5216    2.1916   -1.5124 O.2     1  UNL1       -0.2444
      5 C           4.5122    0.4045    0.0533 C.ar    1  UNL1        0.0973
      6 C           3.1278    0.1446    0.0907 C.ar    1  UNL1       -0.0317
      7 C           2.7668   -0.9047    0.9792 C.ar    1  UNL1        0.0053
      8 C           3.9295   -1.3995    1.5646 C.ar    1  UNL1        0.0277
      9 C           3.6633   -2.4277    2.4209 C.ar    1  UNL1       -0.0094
     10 S           1.9718   -2.7457    2.4661 S.2     1  UNL1       -0.0944
     11 C           1.5951   -1.4957    1.3303 C.ar    1  UNL1        0.0342
     12 C           0.2502   -1.1931    0.9164 C.ar    1  UNL1        0.0279
     13 C          -0.2936    0.0592    0.7267 C.ar    1  UNL1       -0.0350
     14 C          -1.6607    0.0357    0.2785 C.ar    1  UNL1        0.0361
     15 C          -2.1323   -1.2706    0.1742 C.ar    1  UNL1        0.0657
     16 S          -0.8951   -2.4081    0.5628 S.2     1  UNL1       -0.0839
     17 C          -3.4585   -1.5259   -0.2062 C.ar    1  UNL1        0.1427
     18 O          -3.9017   -2.8373   -0.3289 O.3     1  UNL1       -0.4933
     19 C          -4.4835   -3.2685    0.9029 C.3     1  UNL1        0.0789
     20 C          -4.3399   -0.4752   -0.5312 C.ar    1  UNL1        0.0355
     21 C          -5.7078   -0.4998   -0.9786 C.ar    1  UNL1       -0.0433
     22 C          -6.2364    0.7539   -1.1668 C.ar    1  UNL1       -0.0230
     23 S          -5.1044    1.9757   -0.8168 S.2     1  UNL1       -0.0929
     24 C          -3.8669    0.8333   -0.4267 C.ar    1  UNL1        0.0651
     25 C          -2.5405    1.0872   -0.0459 C.ar    1  UNL1        0.1427
     26 O          -2.0942    2.3976    0.0772 O.3     1  UNL1       -0.4933
     27 C          -1.5101    2.8282   -1.1539 C.3     1  UNL1        0.0789
     28 S           5.4841   -0.6285    1.1020 S.2     1  UNL1       -0.0813
     29 H           8.2306    2.3667   -1.2089 H       1  UNL1        0.0661
     30 H           6.8230    3.4444   -1.1241 H       1  UNL1        0.0661
     31 H           6.9890    2.2609   -2.4727 H       1  UNL1        0.0661
     32 H           2.4292    0.7068   -0.5196 H       1  UNL1        0.0637
     33 H           4.3750   -2.9929    3.0069 H       1  UNL1        0.0705
     34 H           0.2523    0.9790    0.9010 H       1  UNL1        0.0636
     35 H          -4.7809   -4.3145    0.7829 H       1  UNL1        0.0660
     36 H          -3.7669   -3.2134    1.7292 H       1  UNL1        0.0660
     37 H          -5.3806   -2.6876    1.1419 H       1  UNL1        0.0660
     38 H          -6.2699   -1.4107   -1.1470 H       1  UNL1        0.0630
     39 H          -7.2357    1.0098   -1.4914 H       1  UNL1        0.0694
     40 H          -2.2245    2.7709   -1.9820 H       1  UNL1        0.0660
     41 H          -1.2145    3.8748   -1.0344 H       1  UNL1        0.0660
     42 H          -0.6116    2.2482   -1.3895 H       1  UNL1        0.0660
@<TRIPOS>BOND
     1     1     2    1
     2     2     3    1
     3     3     4    2
     4     3     5    1
     5     5     6   ar
     6     6     7   ar
     7     7     8   ar
     8     8     9   ar
     9     9    10   ar
    10    10    11   ar
    11    11    12    1
    12    12    13   ar
    13    13    14   ar
    14    14    15   ar
    15    15    16   ar
    16    15    17   ar
    17    17    18    1
    18    18    19    1
    19    17    20   ar
    20    20    21   ar
    21    21    22   ar
    22    22    23   ar
    23    23    24   ar
    24    24    25   ar
    25    25    26    1
    26    26    27    1
    27     8    28   ar
    28    28     5   ar
    29    11     7   ar
    30    16    12   ar
    31    24    20   ar
    32    25    14   ar
    33     1    29    1
    34     1    30    1
    35     1    31    1
    36     6    32    1
    37     9    33    1
    38    13    34    1
    39    19    35    1
    40    19    36    1
    41    19    37    1
    42    21    38    1
    43    22    39    1
    44    27    40    1
    45    27    41    1
    46    27    42    1
