@<TRIPOS>MOLECULE
*****
 42 46 0 0 0
SMALL
GASTEIGER

@<TRIPOS>ATOM
      1 C           7.7210    1.3188   -0.3517 C.3     1  UNL1        0.0820
      2 O           6.5739    1.3199   -1.2011 O.3     1  UNL1       -0.4641
      3 C           5.3968    1.0803   -0.5530 C.2     1  UNL1        0.3456
      4 O           5.3114    0.8790    0.6535 O.2     1  UNL1       -0.2444
      5 C           4.2598    1.0933   -1.4680 C.ar    1  UNL1        0.0973
      6 C           2.9227    0.8653   -1.0859 C.ar    1  UNL1       -0.0317
      7 C           1.9999    0.9303   -2.1658 C.ar    1  UNL1        0.0054
      8 C           2.7099    1.2230   -3.3277 C.ar    1  UNL1        0.0277
      9 C           1.8860    1.3176   -4.4111 C.ar    1  UNL1       -0.0094
     10 S           0.2520    1.0418   -3.9457 S.2     1  UNL1       -0.0943
     11 C           0.6532    0.7950   -2.2800 C.ar    1  UNL1        0.0369
     12 C          -0.3338    0.4838   -1.2816 C.ar    1  UNL1        0.0630
     13 S          -1.8374    1.2904   -1.1965 S.2     1  UNL1       -0.0809
     14 C          -2.3550    0.3904    0.1849 C.ar    1  UNL1        0.0686
     15 C          -1.3832   -0.5253    0.5845 C.ar    1  UNL1        0.0713
     16 C          -0.2433   -0.4441   -0.2732 C.ar    1  UNL1        0.1500
     17 F           0.8308   -1.2350   -0.1108 F       1  UNL1       -0.2035
     18 C          -1.6579   -1.3353    1.7038 C.ar    1  UNL1        0.1456
     19 O          -0.6952   -2.2324    2.1460 O.3     1  UNL1       -0.4933
     20 C          -0.8530   -3.4875    1.4828 C.3     1  UNL1        0.0789
     21 C          -2.8437   -1.1794    2.4384 C.ar    1  UNL1        0.0680
     22 S          -3.3197   -2.0144    3.8806 S.2     1  UNL1       -0.0899
     23 C          -4.7955   -1.1718    3.9779 C.ar    1  UNL1        0.0123
     24 C          -4.9200   -0.2843    2.9449 C.ar    1  UNL1        0.1417
     25 F          -6.0029    0.4952    2.8034 F       1  UNL1       -0.2042
     26 C          -3.8165   -0.2610    2.0388 C.ar    1  UNL1        0.0706
     27 C          -3.5696    0.5002    0.8796 C.ar    1  UNL1        0.1456
     28 O          -4.5015    1.4464    0.4749 O.3     1  UNL1       -0.4933
     29 C          -5.4672    0.8448   -0.3887 C.3     1  UNL1        0.0789
     30 S           4.4896    1.4134   -3.1878 S.2     1  UNL1       -0.0813
     31 H           8.6003    1.5192   -0.9701 H       1  UNL1        0.0661
     32 H           7.8471    0.3400    0.1217 H       1  UNL1        0.0661
     33 H           7.6413    2.1082    0.4021 H       1  UNL1        0.0661
     34 H           2.6544    0.6614   -0.0543 H       1  UNL1        0.0637
     35 H           2.1701    1.5335   -5.4320 H       1  UNL1        0.0705
     36 H          -0.6902   -3.3916    0.4042 H       1  UNL1        0.0660
     37 H          -0.0975   -4.1722    1.8793 H       1  UNL1        0.0660
     38 H          -1.8396   -3.9212    1.6780 H       1  UNL1        0.0660
     39 H          -5.4971   -1.3595    4.7778 H       1  UNL1        0.0722
     40 H          -6.0469    0.0775    0.1350 H       1  UNL1        0.0660
     41 H          -6.1585    1.6280   -0.7136 H       1  UNL1        0.0660
     42 H          -4.9952    0.4181   -1.2802 H       1  UNL1        0.0660
@<TRIPOS>BOND
     1     1     2    1
     2     2     3    1
     3     3     4    2
     4     3     5    1
     5     5     6   ar
     6     6     7   ar
     7     7     8   ar
     8     8     9   ar
     9     9    10   ar
    10    10    11   ar
    11    11    12    1
    12    12    13   ar
    13    13    14   ar
    14    14    15   ar
    15    15    16   ar
    16    16    17    1
    17    15    18   ar
    18    18    19    1
    19    19    20    1
    20    18    21   ar
    21    21    22   ar
    22    22    23   ar
    23    23    24   ar
    24    24    25    1
    25    24    26   ar
    26    26    27   ar
    27    27    28    1
    28    28    29    1
    29     8    30   ar
    30    30     5   ar
    31    11     7   ar
    32    16    12   ar
    33    26    21   ar
    34    27    14   ar
    35     1    31    1
    36     1    32    1
    37     1    33    1
    38     6    34    1
    39     9    35    1
    40    20    36    1
    41    20    37    1
    42    20    38    1
    43    23    39    1
    44    29    40    1
    45    29    41    1
    46    29    42    1
