@<TRIPOS>MOLECULE
*****
 31 32 0 0 0
SMALL
GASTEIGER

@<TRIPOS>ATOM
      1 C           4.5725   -1.0015   -3.7944 C.3     1  UNL1        0.0820
      2 O           3.4748   -0.7073   -2.9281 O.3     1  UNL1       -0.4641
      3 C           3.6158   -1.2054   -1.6678 C.2     1  UNL1        0.3457
      4 O           4.5837   -1.8454   -1.2830 O.2     1  UNL1       -0.2444
      5 C           2.4228   -0.8659   -0.8227 C.ar    1  UNL1        0.1001
      6 C           1.4372   -0.0675   -1.2681 C.ar    1  UNL1       -0.0330
      7 C           0.2666    0.3070   -0.4615 C.ar    1  UNL1       -0.0087
      8 C          -0.5178    1.3899   -0.8798 C.ar    1  UNL1       -0.0502
      9 C          -1.6417    1.7865   -0.1480 C.ar    1  UNL1       -0.0157
     10 C          -2.0045    1.1062    1.0155 C.ar    1  UNL1        0.1623
     11 O          -3.0651    1.4447    1.8138 O.3     1  UNL1       -0.4914
     12 C          -3.7617    2.6466    1.5137 C.3     1  UNL1        0.0790
     13 C          -1.2438   -0.0062    1.4208 C.ar    1  UNL1        0.1734
     14 O          -1.5411   -0.6364    2.6060 O.3     1  UNL1       -0.4907
     15 C          -2.6406   -1.5346    2.4450 C.3     1  UNL1        0.0790
     16 C          -0.1071   -0.3997    0.6928 C.ar    1  UNL1        0.0811
     17 C           0.6848   -1.5837    1.1041 C.ar    1  UNL1        0.2286
     18 O           0.1804   -2.5683    1.6246 O.2     1  UNL1       -0.2792
     19 S           2.4091   -1.5375    0.7759 S.2     1  UNL1       -0.0397
     20 H           5.4950   -0.5557   -3.4094 H       1  UNL1        0.0661
     21 H           4.6845   -2.0832   -3.9181 H       1  UNL1        0.0661
     22 H           4.3582   -0.5620   -4.7725 H       1  UNL1        0.0661
     23 H           1.4794    0.3583   -2.2678 H       1  UNL1        0.0637
     24 H          -0.2590    1.9496   -1.7775 H       1  UNL1        0.0625
     25 H          -2.2076    2.6388   -0.5114 H       1  UNL1        0.0655
     26 H          -3.0908    3.5116    1.5389 H       1  UNL1        0.0660
     27 H          -4.5231    2.7933    2.2859 H       1  UNL1        0.0660
     28 H          -4.2758    2.5715    0.5500 H       1  UNL1        0.0660
     29 H          -3.5909   -0.9941    2.4904 H       1  UNL1        0.0660
     30 H          -2.6169   -2.2433    3.2782 H       1  UNL1        0.0660
     31 H          -2.5772   -2.1063    1.5119 H       1  UNL1        0.0660
@<TRIPOS>BOND
     1     1     2    1
     2     2     3    1
     3     3     4    2
     4     3     5    1
     5     5     6   ar
     6     6     7   ar
     7     7     8   ar
     8     8     9   ar
     9     9    10   ar
    10    10    11    1
    11    11    12    1
    12    10    13   ar
    13    13    14    1
    14    14    15    1
    15    13    16   ar
    16    16    17   ar
    17    17    18    2
    18    17    19   ar
    19    19     5   ar
    20    16     7   ar
    21     1    20    1
    22     1    21    1
    23     1    22    1
    24     6    23    1
    25     8    24    1
    26     9    25    1
    27    12    26    1
    28    12    27    1
    29    12    28    1
    30    15    29    1
    31    15    30    1
    32    15    31    1
