@<TRIPOS>MOLECULE
*****
 37 40 0 0 0
SMALL
GASTEIGER

@<TRIPOS>ATOM
      1 C          -1.4675   -3.6279    0.6689 C.3     1  UNL1        0.0820
      2 O          -1.7572   -2.2348    0.7686 O.3     1  UNL1       -0.4634
      3 C          -2.0284   -1.6391   -0.4240 C.2     1  UNL1        0.3556
      4 O          -2.0978   -2.2349   -1.4925 O.2     1  UNL1       -0.2433
      5 C          -2.3078   -0.2279   -0.2448 C.ar    1  UNL1        0.1287
      6 C          -3.1169    0.5414   -1.0972 C.ar    1  UNL1       -0.0215
      7 C          -3.1097    1.8192   -0.5694 C.ar    1  UNL1        0.0080
      8 C          -3.7144    3.0141   -0.9455 C.ar    1  UNL1       -0.0454
      9 C          -3.3347    3.9997   -0.0406 C.ar    1  UNL1       -0.0218
     10 S          -2.2616    3.3958    1.1966 S.2     1  UNL1       -0.0789
     11 C          -2.3391    1.8731    0.5213 C.ar    1  UNL1        0.0884
     12 N          -1.8089    0.6376    0.7433 N.ar    1  UNL1       -0.3234
     13 C          -0.8202    0.3463    1.7763 C.3     1  UNL1        0.0668
     14 C           0.5932    0.3787    1.2321 C.ar    1  UNL1        0.0684
     15 C           1.4092    1.4032    1.5089 C.ar    1  UNL1        0.0264
     16 C           2.7751    1.4050    0.9585 C.ar    1  UNL1        0.2586
     17 O           3.5198    2.3443    1.2355 O.2     1  UNL1       -0.2672
     18 N           3.1029    0.3184    0.1646 N.ar    1  UNL1       -0.2682
     19 C           4.3685    0.2486   -0.4066 C.ar    1  UNL1        0.0146
     20 C           4.7391   -0.7834   -1.1746 C.ar    1  UNL1       -0.0450
     21 C           3.8154   -1.8570   -1.4278 C.ar    1  UNL1       -0.0569
     22 C           2.5871   -1.8345   -0.8970 C.ar    1  UNL1       -0.0187
     23 C           2.1697   -0.6903   -0.0384 C.ar    1  UNL1        0.1405
     24 N           0.9748   -0.6970    0.4686 N.ar    1  UNL1       -0.2321
     25 H          -2.3412   -4.1756    0.3023 H       1  UNL1        0.0661
     26 H          -0.6019   -3.7969    0.0205 H       1  UNL1        0.0661
     27 H          -1.2243   -3.9952    1.6698 H       1  UNL1        0.0661
     28 H          -3.6299    0.1696   -1.9751 H       1  UNL1        0.0647
     29 H          -4.3678    3.1805   -1.7912 H       1  UNL1        0.0629
     30 H          -3.6180    5.0431   -0.0330 H       1  UNL1        0.0694
     31 H          -0.9512    1.0870    2.5748 H       1  UNL1        0.0557
     32 H          -1.0526   -0.6147    2.2397 H       1  UNL1        0.0557
     33 H           1.1234    2.2559    2.1106 H       1  UNL1        0.0690
     34 H           5.0479    1.0725   -0.2023 H       1  UNL1        0.0814
     35 H           5.7289   -0.8281   -1.6173 H       1  UNL1        0.0632
     36 H           4.1358   -2.6785   -2.0605 H       1  UNL1        0.0619
     37 H           1.8604   -2.6185   -1.0694 H       1  UNL1        0.0654
@<TRIPOS>BOND
     1     1     2    1
     2     2     3    1
     3     3     4    2
     4     3     5    1
     5     5     6   ar
     6     6     7   ar
     7     7     8   ar
     8     8     9   ar
     9     9    10   ar
    10    10    11   ar
    11    11    12   ar
    12    12    13    1
    13    13    14    1
    14    14    15   ar
    15    15    16   ar
    16    16    17    2
    17    16    18   ar
    18    18    19   ar
    19    19    20   ar
    20    20    21   ar
    21    21    22   ar
    22    22    23   ar
    23    23    24   ar
    24    12     5   ar
    25    24    14   ar
    26    11     7   ar
    27    23    18   ar
    28     1    25    1
    29     1    26    1
    30     1    27    1
    31     6    28    1
    32     8    29    1
    33     9    30    1
    34    13    31    1
    35    13    32    1
    36    15    33    1
    37    19    34    1
    38    20    35    1
    39    21    36    1
    40    22    37    1
