@<TRIPOS>MOLECULE
*****
 40 44 0 0 0
SMALL
GASTEIGER

@<TRIPOS>ATOM
      1 C           6.2571   -1.2924    3.3871 C.3     1  UNL1        0.0820
      2 O           5.2477   -0.8000    2.5063 O.3     1  UNL1       -0.4641
      3 C           5.7056    0.0652    1.5559 C.2     1  UNL1        0.3456
      4 O           6.8794    0.4049    1.4504 O.2     1  UNL1       -0.2444
      5 C           4.6334    0.5354    0.6850 C.ar    1  UNL1        0.0973
      6 C           4.8097    1.4366   -0.3830 C.ar    1  UNL1       -0.0323
      7 C           3.6103    1.7325   -1.0705 C.ar    1  UNL1       -0.0024
      8 C           3.3253    2.5359   -2.1183 C.ar    1  UNL1       -0.0154
      9 S           1.6336    2.4318   -2.4170 S.2     1  UNL1       -0.0944
     10 C           1.3748    1.2934   -1.1402 C.ar    1  UNL1        0.0402
     11 C           0.0784    0.7557   -0.8430 C.ar    1  UNL1        0.0281
     12 C          -1.0883    1.4625   -0.6544 C.ar    1  UNL1       -0.0384
     13 C          -2.2409    0.6364   -0.3852 C.ar    1  UNL1       -0.0060
     14 C          -1.8939   -0.7134   -0.3980 C.ar    1  UNL1        0.0237
     15 S          -0.2061   -0.9158   -0.7316 S.2     1  UNL1       -0.0874
     16 C          -2.8419   -1.7370   -0.1663 C.ar    1  UNL1       -0.0279
     17 C          -2.3994   -3.1848   -0.1918 C.3     1  UNL1       -0.0380
     18 C          -4.1939   -1.3836    0.0761 C.ar    1  UNL1       -0.0066
     19 C          -5.3491   -2.2120    0.3267 C.ar    1  UNL1       -0.0467
     20 C          -6.5059   -1.4987    0.5169 C.ar    1  UNL1       -0.0232
     21 S          -6.2370    0.1716    0.3990 S.2     1  UNL1       -0.0964
     22 C          -4.5410   -0.0319    0.0894 C.ar    1  UNL1        0.0231
     23 C          -3.5897    0.9917   -0.1292 C.ar    1  UNL1       -0.0279
     24 C          -4.0297    2.4400   -0.1013 C.3     1  UNL1       -0.0380
     25 C           2.5554    1.0280   -0.4936 C.ar    1  UNL1        0.0354
     26 S           2.9729   -0.0114    0.9224 S.2     1  UNL1       -0.0806
     27 H           6.7128   -0.4694    3.9466 H       1  UNL1        0.0661
     28 H           5.7824   -1.9729    4.0993 H       1  UNL1        0.0661
     29 H           7.0155   -1.8501    2.8287 H       1  UNL1        0.0661
     30 H           5.7825    1.8498   -0.6280 H       1  UNL1        0.0637
     31 H           3.9699    3.1688   -2.7121 H       1  UNL1        0.0700
     32 H          -1.1198    2.5442   -0.6987 H       1  UNL1        0.0635
     33 H          -1.6037   -3.3491    0.5427 H       1  UNL1        0.0278
     34 H          -3.2090   -3.8776    0.0496 H       1  UNL1        0.0278
     35 H          -2.0282   -3.4450   -1.1888 H       1  UNL1        0.0278
     36 H          -5.3305   -3.2936    0.3652 H       1  UNL1        0.0629
     37 H          -7.4957   -1.8843    0.7189 H       1  UNL1        0.0694
     38 H          -4.5430    2.6633    0.8400 H       1  UNL1        0.0278
     39 H          -4.7085    2.6390   -0.9373 H       1  UNL1        0.0278
     40 H          -3.1914    3.1362   -0.1804 H       1  UNL1        0.0278
@<TRIPOS>BOND
     1     1     2    1
     2     2     3    1
     3     3     4    2
     4     3     5    1
     5     5     6   ar
     6     6     7   ar
     7     7     8   ar
     8     8     9   ar
     9     9    10   ar
    10    10    11    1
    11    11    12   ar
    12    12    13   ar
    13    13    14   ar
    14    14    15   ar
    15    14    16   ar
    16    16    17    1
    17    16    18   ar
    18    18    19   ar
    19    19    20   ar
    20    20    21   ar
    21    21    22   ar
    22    22    23   ar
    23    23    24    1
    24    10    25   ar
    25    25    26   ar
    26    26     5   ar
    27    25     7   ar
    28    15    11   ar
    29    22    18   ar
    30    23    13   ar
    31     1    27    1
    32     1    28    1
    33     1    29    1
    34     6    30    1
    35     8    31    1
    36    12    32    1
    37    17    33    1
    38    17    34    1
    39    17    35    1
    40    19    36    1
    41    20    37    1
    42    24    38    1
    43    24    39    1
    44    24    40    1
