@<TRIPOS>MOLECULE
*****
 42 46 0 0 0
SMALL
GASTEIGER

@<TRIPOS>ATOM
      1 C           7.7236   -1.5231    1.6166 C.3     1  UNL1        0.0820
      2 O           6.7553   -0.9183    0.7588 O.3     1  UNL1       -0.4641
      3 C           5.4654   -1.0573    1.1904 C.2     1  UNL1        0.3456
      4 O           5.1508   -1.6474    2.2172 O.2     1  UNL1       -0.2444
      5 C           4.5621   -0.4065    0.2504 C.ar    1  UNL1        0.0973
      6 C           4.8885    0.2697   -0.9408 C.ar    1  UNL1       -0.0323
      7 C           3.7579    0.7858   -1.6167 C.ar    1  UNL1       -0.0024
      8 C           3.6105    1.4721   -2.7709 C.ar    1  UNL1       -0.0154
      9 S           1.9292    1.7603   -3.0021 S.2     1  UNL1       -0.0944
     10 C           1.4884    0.9744   -1.5266 C.ar    1  UNL1        0.0402
     11 C           0.1271    0.8695   -1.0882 C.ar    1  UNL1        0.0284
     12 C          -0.9430    0.3934   -1.8136 C.ar    1  UNL1       -0.0350
     13 C          -2.1875    0.4258   -1.0916 C.ar    1  UNL1        0.0361
     14 C          -2.0154    0.9625    0.1827 C.ar    1  UNL1        0.0657
     15 S          -0.3687    1.3988    0.4548 S.2     1  UNL1       -0.0839
     16 C          -3.1041    1.0957    1.0576 C.ar    1  UNL1        0.1427
     17 O          -2.9147    1.6514    2.3173 O.3     1  UNL1       -0.4933
     18 C          -2.6581    0.6158    3.2674 C.3     1  UNL1        0.0789
     19 C          -4.4111    0.7606    0.6513 C.ar    1  UNL1        0.0355
     20 C          -5.6697    0.8839    1.3386 C.ar    1  UNL1       -0.0433
     21 C          -6.7359    0.4402    0.5951 C.ar    1  UNL1       -0.0230
     22 S          -6.2477   -0.1267   -0.9338 S.2     1  UNL1       -0.0929
     23 C          -4.5826    0.2185   -0.6228 C.ar    1  UNL1        0.0651
     24 C          -3.4824    0.0197   -1.4707 C.ar    1  UNL1        0.1427
     25 O          -3.6756   -0.5044   -2.7432 O.3     1  UNL1       -0.4933
     26 C          -3.5163   -1.9235   -2.7094 C.3     1  UNL1        0.0789
     27 C           2.6037    0.4832   -0.8969 C.ar    1  UNL1        0.0354
     28 S           2.8367   -0.4603    0.6241 S.2     1  UNL1       -0.0806
     29 H           8.7129   -1.3523    1.1833 H       1  UNL1        0.0661
     30 H           7.5568   -2.6028    1.6825 H       1  UNL1        0.0661
     31 H           7.6972   -1.0636    2.6096 H       1  UNL1        0.0661
     32 H           5.9100    0.3713   -1.2899 H       1  UNL1        0.0637
     33 H           4.3480    1.8112   -3.4848 H       1  UNL1        0.0700
     34 H          -0.8565    0.0242   -2.8291 H       1  UNL1        0.0636
     35 H          -1.7635    0.0409    3.0056 H       1  UNL1        0.0660
     36 H          -3.5204   -0.0519    3.3675 H       1  UNL1        0.0660
     37 H          -2.4833    1.0895    4.2379 H       1  UNL1        0.0660
     38 H          -5.7725    1.2920    2.3370 H       1  UNL1        0.0630
     39 H          -7.7800    0.4269    0.8764 H       1  UNL1        0.0694
     40 H          -4.2305   -2.3932   -2.0248 H       1  UNL1        0.0660
     41 H          -2.4926   -2.2006   -2.4360 H       1  UNL1        0.0660
     42 H          -3.7120   -2.3053   -3.7159 H       1  UNL1        0.0660
@<TRIPOS>BOND
     1     1     2    1
     2     2     3    1
     3     3     4    2
     4     3     5    1
     5     5     6   ar
     6     6     7   ar
     7     7     8   ar
     8     8     9   ar
     9     9    10   ar
    10    10    11    1
    11    11    12   ar
    12    12    13   ar
    13    13    14   ar
    14    14    15   ar
    15    14    16   ar
    16    16    17    1
    17    17    18    1
    18    16    19   ar
    19    19    20   ar
    20    20    21   ar
    21    21    22   ar
    22    22    23   ar
    23    23    24   ar
    24    24    25    1
    25    25    26    1
    26    10    27   ar
    27    27    28   ar
    28    28     5   ar
    29    27     7   ar
    30    15    11   ar
    31    23    19   ar
    32    24    13   ar
    33     1    29    1
    34     1    30    1
    35     1    31    1
    36     6    32    1
    37     8    33    1
    38    12    34    1
    39    18    35    1
    40    18    36    1
    41    18    37    1
    42    20    38    1
    43    21    39    1
    44    26    40    1
    45    26    41    1
    46    26    42    1
