@<TRIPOS>MOLECULE
*****
 42 46 0 0 0
SMALL
GASTEIGER

@<TRIPOS>ATOM
      1 C          -6.9422   -2.7276    1.0490 C.3     1  UNL1        0.0820
      2 O          -6.0392   -1.6557    0.7796 O.3     1  UNL1       -0.4641
      3 C          -6.6374   -0.5225    0.3112 C.2     1  UNL1        0.3456
      4 O          -7.8454   -0.4130    0.1307 O.2     1  UNL1       -0.2444
      5 C          -5.6690    0.5382    0.0531 C.ar    1  UNL1        0.0973
      6 C          -5.9978    1.8189   -0.4319 C.ar    1  UNL1       -0.0323
      7 C          -4.8747    2.6616   -0.5957 C.ar    1  UNL1       -0.0024
      8 C          -4.7370    3.9392   -1.0120 C.ar    1  UNL1       -0.0154
      9 S          -3.0647    4.3390   -0.9407 S.2     1  UNL1       -0.0944
     10 C          -2.6080    2.7675   -0.3796 C.ar    1  UNL1        0.0402
     11 C          -1.2426    2.4152   -0.1135 C.ar    1  UNL1        0.0276
     12 C          -0.3360    3.1243    0.6465 C.ar    1  UNL1       -0.0458
     13 C           0.9468    2.5006    0.6880 C.ar    1  UNL1       -0.0458
     14 C           1.0037    1.3304   -0.0496 C.ar    1  UNL1        0.0265
     15 C           2.1347    0.4406   -0.2331 C.ar    1  UNL1        0.0265
     16 C           2.1665   -0.7778   -0.8906 C.ar    1  UNL1       -0.0458
     17 C           3.4576   -1.3851   -0.8784 C.ar    1  UNL1       -0.0458
     18 C           4.3919   -0.6175   -0.2162 C.ar    1  UNL1        0.0267
     19 C           5.7817   -0.9382   -0.0058 C.ar    1  UNL1        0.0288
     20 S           7.0163    0.1220   -0.5522 S.2     1  UNL1       -0.0959
     21 C           8.2499   -0.9146    0.0035 C.ar    1  UNL1       -0.0235
     22 C           7.7408   -2.0485    0.5922 C.ar    1  UNL1       -0.0512
     23 C           6.3050   -2.0759    0.5969 C.ar    1  UNL1       -0.0352
     24 C           5.5072   -3.1920    1.1910 C.3     1  UNL1       -0.0386
     25 S           3.6926    0.8194    0.3911 S.2     1  UNL1       -0.0872
     26 S          -0.5182    1.0207   -0.7878 S.2     1  UNL1       -0.0872
     27 C          -3.7183    1.9753   -0.2299 C.ar    1  UNL1        0.0354
     28 S          -3.9487    0.2800    0.3475 S.2     1  UNL1       -0.0806
     29 H          -7.6561   -2.4412    1.8278 H       1  UNL1        0.0661
     30 H          -7.4639   -3.0294    0.1354 H       1  UNL1        0.0661
     31 H          -6.3590   -3.5786    1.4112 H       1  UNL1        0.0661
     32 H          -7.0226    2.1034   -0.6468 H       1  UNL1        0.0637
     33 H          -5.4795    4.6542   -1.3378 H       1  UNL1        0.0700
     34 H          -0.5754    4.0480    1.1600 H       1  UNL1        0.0629
     35 H           1.7850    2.9069    1.2413 H       1  UNL1        0.0629
     36 H           1.3046   -1.2291   -1.3672 H       1  UNL1        0.0629
     37 H           3.6860   -2.3359   -1.3445 H       1  UNL1        0.0629
     38 H           9.2889   -0.6451   -0.1274 H       1  UNL1        0.0693
     39 H           8.3694   -2.8271    1.0082 H       1  UNL1        0.0626
     40 H           5.0797   -3.8168    0.4006 H       1  UNL1        0.0278
     41 H           6.1330   -3.8292    1.8244 H       1  UNL1        0.0278
     42 H           4.6940   -2.8046    1.8132 H       1  UNL1        0.0278
@<TRIPOS>BOND
     1     1     2    1
     2     2     3    1
     3     3     4    2
     4     3     5    1
     5     5     6   ar
     6     6     7   ar
     7     7     8   ar
     8     8     9   ar
     9     9    10   ar
    10    10    11    1
    11    11    12   ar
    12    12    13   ar
    13    13    14   ar
    14    14    15    1
    15    15    16   ar
    16    16    17   ar
    17    17    18   ar
    18    18    19    1
    19    19    20   ar
    20    20    21   ar
    21    21    22   ar
    22    22    23   ar
    23    23    24    1
    24    18    25   ar
    25    14    26   ar
    26    10    27   ar
    27    27    28   ar
    28    28     5   ar
    29    27     7   ar
    30    26    11   ar
    31    25    15   ar
    32    23    19   ar
    33     1    29    1
    34     1    30    1
    35     1    31    1
    36     6    32    1
    37     8    33    1
    38    12    34    1
    39    13    35    1
    40    16    36    1
    41    17    37    1
    42    21    38    1
    43    22    39    1
    44    24    40    1
    45    24    41    1
    46    24    42    1
