@<TRIPOS>MOLECULE
*****
 25 27 0 0 0
SMALL
GASTEIGER

@<TRIPOS>ATOM
      1 C           5.2970   -0.8332    0.2179 C.3     1  UNL1        0.0820
      2 O           4.0508   -0.1433    0.1173 O.3     1  UNL1       -0.4641
      3 C           2.9560   -0.9597    0.1822 C.2     1  UNL1        0.3456
      4 O           3.0203   -2.1759    0.3172 O.2     1  UNL1       -0.2444
      5 C           1.7424   -0.1612    0.0692 C.ar    1  UNL1        0.0973
      6 C           1.6324    1.2351   -0.0754 C.ar    1  UNL1       -0.0323
      7 C           0.2931    1.6836   -0.1554 C.ar    1  UNL1       -0.0024
      8 C          -0.2590    2.9076   -0.3007 C.ar    1  UNL1       -0.0154
      9 S          -1.9686    2.7141   -0.3304 S.2     1  UNL1       -0.0944
     10 C          -1.8820    0.9962   -0.1439 C.ar    1  UNL1        0.0402
     11 C          -3.0397    0.1489   -0.0690 C.ar    1  UNL1        0.0270
     12 C          -3.2919   -0.8492    0.8546 C.ar    1  UNL1       -0.0464
     13 C          -4.5384   -1.5049    0.6308 C.ar    1  UNL1       -0.0541
     14 C          -5.2025   -0.9873   -0.4572 C.ar    1  UNL1       -0.0237
     15 S          -4.3270    0.2793   -1.1985 S.2     1  UNL1       -0.0961
     16 C          -0.5720    0.5950   -0.0644 C.ar    1  UNL1        0.0354
     17 S           0.2030   -1.0260    0.1135 S.2     1  UNL1       -0.0806
     18 H           5.3756   -1.3451    1.1821 H       1  UNL1        0.0661
     19 H           6.0994   -0.0930    0.1535 H       1  UNL1        0.0661
     20 H           5.4122   -1.5406   -0.6093 H       1  UNL1        0.0661
     21 H           2.4994    1.8846   -0.1206 H       1  UNL1        0.0637
     22 H           0.2039    3.8801   -0.3925 H       1  UNL1        0.0700
     23 H          -2.6172   -1.1009    1.6642 H       1  UNL1        0.0629
     24 H          -4.9258   -2.3138    1.2382 H       1  UNL1        0.0623
     25 H          -6.1614   -1.2903   -0.8548 H       1  UNL1        0.0693
@<TRIPOS>BOND
     1     1     2    1
     2     2     3    1
     3     3     4    2
     4     3     5    1
     5     5     6   ar
     6     6     7   ar
     7     7     8   ar
     8     8     9   ar
     9     9    10   ar
    10    10    11    1
    11    11    12   ar
    12    12    13   ar
    13    13    14   ar
    14    14    15   ar
    15    10    16   ar
    16    16    17   ar
    17    17     5   ar
    18    16     7   ar
    19    15    11   ar
    20     1    18    1
    21     1    19    1
    22     1    20    1
    23     6    21    1
    24     8    22    1
    25    12    23    1
    26    13    24    1
    27    14    25    1
