@<TRIPOS>MOLECULE
*****
 37 37 0 0 0
SMALL
GASTEIGER

@<TRIPOS>ATOM
      1 C           5.6564    1.4253   -0.7800 C.3     1  UNL1        0.0820
      2 O           4.5323    0.7688   -0.1926 O.3     1  UNL1       -0.4644
      3 C           3.3392    1.1408   -0.7218 C.2     1  UNL1        0.3390
      4 O           3.1803    1.9586   -1.6145 O.2     1  UNL1       -0.2450
      5 C           2.2228    0.4108   -0.0634 C.ar    1  UNL1        0.0607
      6 C           2.4220   -0.4636    1.0021 C.ar    1  UNL1       -0.0474
      7 C           1.3282   -1.1089    1.5774 C.ar    1  UNL1       -0.0563
      8 C           0.0150   -0.8935    1.1084 C.ar    1  UNL1       -0.0294
      9 C          -1.0891   -1.6124    1.8353 C.3     1  UNL1       -0.0380
     10 C          -0.2010   -0.0333    0.0118 C.ar    1  UNL1        0.0335
     11 N          -1.4338    0.2298   -0.5812 N.pl3   1  UNL1       -0.3253
     12 C          -1.9780    1.5870   -0.3800 C.3     1  UNL1        0.0354
     13 C          -2.7421    1.7420    0.9444 C.3     1  UNL1        0.0599
     14 O          -3.9651    1.0029    0.9561 O.3     1  UNL1       -0.3935
     15 C          -2.3823   -0.8353   -0.9230 C.3     1  UNL1        0.0354
     16 C          -1.7643   -1.9164   -1.8198 C.3     1  UNL1        0.0599
     17 O          -2.7362   -2.9062   -2.1595 O.3     1  UNL1       -0.3935
     18 C           0.9228    0.6145   -0.5440 C.ar    1  UNL1       -0.0264
     19 H           5.7229    1.1914   -1.8472 H       1  UNL1        0.0661
     20 H           6.5599    1.0551   -0.2878 H       1  UNL1        0.0661
     21 H           5.5944    2.5067   -0.6222 H       1  UNL1        0.0661
     22 H           3.4157   -0.6512    1.3999 H       1  UNL1        0.0626
     23 H           1.5045   -1.7825    2.4149 H       1  UNL1        0.0621
     24 H          -1.3915   -2.5050    1.2802 H       1  UNL1        0.0278
     25 H          -0.7637   -1.9356    2.8308 H       1  UNL1        0.0278
     26 H          -1.9499   -0.9591    1.9972 H       1  UNL1        0.0278
     27 H          -2.6516    1.8162   -1.2149 H       1  UNL1        0.0486
     28 H          -1.1786    2.3367   -0.4164 H       1  UNL1        0.0486
     29 H          -2.9968    2.7954    1.1011 H       1  UNL1        0.0573
     30 H          -2.1382    1.4162    1.7959 H       1  UNL1        0.0573
     31 H          -4.4928    1.3031    0.1968 H       1  UNL1        0.2095
     32 H          -3.2269   -0.4048   -1.4779 H       1  UNL1        0.0486
     33 H          -2.8419   -1.2850   -0.0388 H       1  UNL1        0.0486
     34 H          -1.3968   -1.4736   -2.7514 H       1  UNL1        0.0573
     35 H          -0.9228   -2.4221   -1.3367 H       1  UNL1        0.0573
     36 H          -2.9497   -3.3883   -1.3420 H       1  UNL1        0.2095
     37 H           0.7765    1.2753   -1.3983 H       1  UNL1        0.0644
@<TRIPOS>BOND
     1     1     2    1
     2     2     3    1
     3     3     4    2
     4     3     5    1
     5     5     6   ar
     6     6     7   ar
     7     7     8   ar
     8     8     9    1
     9     8    10   ar
    10    10    11    1
    11    11    12    1
    12    12    13    1
    13    13    14    1
    14    11    15    1
    15    15    16    1
    16    16    17    1
    17    10    18   ar
    18    18     5   ar
    19     1    19    1
    20     1    20    1
    21     1    21    1
    22     6    22    1
    23     7    23    1
    24     9    24    1
    25     9    25    1
    26     9    26    1
    27    12    27    1
    28    12    28    1
    29    13    29    1
    30    13    30    1
    31    14    31    1
    32    15    32    1
    33    15    33    1
    34    16    34    1
    35    16    35    1
    36    17    36    1
    37    18    37    1
