@<TRIPOS>MOLECULE
*****
 40 41 0 0 0
SMALL
GASTEIGER

@<TRIPOS>ATOM
      1 C           4.8161   -2.7838   -1.8205 C.3     1  UNL1        0.0820
      2 O           4.0482   -2.0970   -0.8318 O.3     1  UNL1       -0.4644
      3 C           4.6792   -1.9496    0.3574 C.2     1  UNL1        0.3390
      4 O           5.8066   -2.3372    0.6223 O.2     1  UNL1       -0.2450
      5 C           3.8133   -1.2313    1.3338 C.ar    1  UNL1        0.0608
      6 C           4.3411   -0.9676    2.6051 C.ar    1  UNL1       -0.0463
      7 C           3.5776   -0.2917    3.5562 C.ar    1  UNL1       -0.0408
      8 C           2.2816    0.1190    3.2395 C.ar    1  UNL1        0.0622
      9 CL          1.3757    0.9595    4.4532 Cl      1  UNL1       -0.0816
     10 C           1.7272   -0.1435    1.9718 C.ar    1  UNL1        0.0539
     11 N           0.4106    0.3043    1.7113 N.am    1  UNL1       -0.2681
     12 C          -0.3838    0.0205    0.6247 C.2     1  UNL1        0.3041
     13 O          -0.1182   -0.7445   -0.2915 O.2     1  UNL1       -0.2525
     14 N          -1.5766    0.7141    0.7024 N.am    1  UNL1       -0.2963
     15 C          -2.5620    0.6246   -0.3685 C.3     1  UNL1        0.0246
     16 C          -2.1737    1.5012   -1.5632 C.3     1  UNL1       -0.0345
     17 C          -3.1517    1.3403   -2.7295 C.3     1  UNL1       -0.0514
     18 C          -4.5683    0.9623   -2.2941 C.3     1  UNL1       -0.0529
     19 C          -4.9047    1.5224   -0.9196 C.3     1  UNL1       -0.0514
     20 C          -3.9554    1.0001    0.1619 C.3     1  UNL1       -0.0345
     21 C           2.5074   -0.8156    1.0226 C.ar    1  UNL1       -0.0250
     22 H           5.7304   -2.2276   -2.0499 H       1  UNL1        0.0661
     23 H           5.0529   -3.7986   -1.4856 H       1  UNL1        0.0661
     24 H           4.2140   -2.8511   -2.7308 H       1  UNL1        0.0661
     25 H           5.3516   -1.2864    2.8572 H       1  UNL1        0.0626
     26 H           3.9986   -0.0898    4.5380 H       1  UNL1        0.0633
     27 H          -0.0562    0.7525    2.4893 H       1  UNL1        0.1564
     28 H          -1.5243    1.5994    1.1844 H       1  UNL1        0.1505
     29 H          -2.5876   -0.4210   -0.7036 H       1  UNL1        0.0499
     30 H          -1.1584    1.2750   -1.9099 H       1  UNL1        0.0283
     31 H          -2.1545    2.5534   -1.2485 H       1  UNL1        0.0283
     32 H          -3.1758    2.2776   -3.2986 H       1  UNL1        0.0266
     33 H          -2.7814    0.5735   -3.4207 H       1  UNL1        0.0266
     34 H          -4.6623   -0.1308   -2.2698 H       1  UNL1        0.0265
     35 H          -5.2891    1.3202   -3.0378 H       1  UNL1        0.0265
     36 H          -4.8448    2.6176   -0.9550 H       1  UNL1        0.0266
     37 H          -5.9383    1.2760   -0.6512 H       1  UNL1        0.0266
     38 H          -3.8848    1.7574    0.9535 H       1  UNL1        0.0283
     39 H          -4.3946    0.1148    0.6397 H       1  UNL1        0.0283
     40 H           2.1140   -1.0185    0.0310 H       1  UNL1        0.0645
@<TRIPOS>BOND
     1     1     2    1
     2     2     3    1
     3     3     4    2
     4     3     5    1
     5     5     6   ar
     6     6     7   ar
     7     7     8   ar
     8     8     9    1
     9     8    10   ar
    10    10    11    1
    11    11    12   am
    12    12    13    2
    13    12    14   am
    14    14    15    1
    15    15    16    1
    16    16    17    1
    17    17    18    1
    18    18    19    1
    19    19    20    1
    20    10    21   ar
    21    21     5   ar
    22    20    15    1
    23     1    22    1
    24     1    23    1
    25     1    24    1
    26     6    25    1
    27     7    26    1
    28    11    27    1
    29    14    28    1
    30    15    29    1
    31    16    30    1
    32    16    31    1
    33    17    32    1
    34    17    33    1
    35    18    34    1
    36    18    35    1
    37    19    36    1
    38    19    37    1
    39    20    38    1
    40    20    39    1
    41    21    40    1
