@<TRIPOS>MOLECULE
*****
 33 38 0 0 0
SMALL
GASTEIGER

@<TRIPOS>ATOM
      1 SI          3.5264    0.6900   -2.6097 Si      1  UNL1        0.0000
      2 C           5.1779    0.5225   -1.6628 C.2     1  UNL1        0.0000
      3 C           5.0220    0.2257   -0.3570 C.2     1  UNL1        0.0000
      4 C           3.6162    0.1045    0.0134 C.ar    1  UNL1        0.0000
      5 C           2.6666    0.3134   -1.0333 C.ar    1  UNL1        0.0000
      6 C           1.2965    0.2199   -0.7816 C.ar    1  UNL1        0.0000
      7 O           0.2387    0.3833   -1.6384 O.2     1  UNL1        0.0000
      8 C          -0.8880    0.1795   -0.8651 C.ar    1  UNL1        0.0000
      9 C          -2.2627    0.2096   -1.1649 C.ar    1  UNL1        0.0000
     10 C          -2.9888   -0.0673   -0.0174 C.ar    1  UNL1        0.0000
     11 S          -1.9937   -0.3523    1.3739 S.2     1  UNL1        0.0000
     12 C          -0.5723   -0.1031    0.4338 C.ar    1  UNL1        0.0000
     13 C           0.8111   -0.0731    0.4673 C.ar    1  UNL1        0.0000
     14 C           1.6806   -0.2933    1.5547 C.ar    1  UNL1        0.0000
     15 C           1.5009   -0.5920    2.8655 C.ar    1  UNL1        0.0000
     16 O           2.7504   -0.6858    3.4351 O.2     1  UNL1        0.0000
     17 C           3.6842   -0.4402    2.4522 C.ar    1  UNL1        0.0000
     18 C           3.0572   -0.1892    1.2565 C.ar    1  UNL1        0.0000
     19 C          -4.4281   -0.1232    0.0589 C.ar    1  UNL1        0.0000
     20 C          -5.2599   -0.3877    1.1378 C.ar    1  UNL1        0.0000
     21 C          -6.5963   -0.3196    0.6734 C.ar    1  UNL1        0.0000
     22 C          -6.5156   -0.0178   -0.6621 C.ar    1  UNL1        0.0000
     23 O          -5.2204    0.1025   -1.0427 O.2     1  UNL1        0.0000
     24 H           3.3489    2.0827   -3.0916 H       1  UNL1        0.0000
     25 H           3.4154   -0.3712   -3.6416 H       1  UNL1        0.0000
     26 H           6.1111    0.6651   -2.1860 H       1  UNL1        0.0000
     27 H           5.8291    0.0894    0.3485 H       1  UNL1        0.0000
     28 H          -2.6923    0.4157   -2.1362 H       1  UNL1        0.0000
     29 H           0.6636   -0.7627    3.5263 H       1  UNL1        0.0000
     30 H           4.7137   -0.4854    2.7781 H       1  UNL1        0.0000
     31 H          -4.9414   -0.6058    2.1479 H       1  UNL1        0.0000
     32 H          -7.5025   -0.4717    1.2424 H       1  UNL1        0.0000
     33 H          -7.2483    0.1374   -1.4419 H       1  UNL1        0.0000
@<TRIPOS>BOND
     1     1     2    1
     2     2     3    2
     3     3     4    1
     4     4     5   ar
     5     5     6   ar
     6     6     7   ar
     7     7     8   ar
     8     8     9   ar
     9     9    10   ar
    10    10    11   ar
    11    11    12   ar
    12    12    13   ar
    13    13    14   ar
    14    14    15   ar
    15    15    16   ar
    16    16    17   ar
    17    17    18   ar
    18    10    19    1
    19    19    20   ar
    20    20    21   ar
    21    21    22   ar
    22    22    23   ar
    23     5     1    1
    24    13     6   ar
    25    18    14   ar
    26    23    19   ar
    27    18     4   ar
    28    12     8   ar
    29     1    24    1
    30     1    25    1
    31     2    26    1
    32     3    27    1
    33     9    28    1
    34    15    29    1
    35    17    30    1
    36    20    31    1
    37    21    32    1
    38    22    33    1
