@<TRIPOS>MOLECULE
*****
 36 38 0 0 0
SMALL
GASTEIGER

@<TRIPOS>ATOM
      1 C           7.2608    0.6764    1.3555 C.3     1  UNL1        0.0820
      2 O           5.8732    0.6836    1.0180 O.3     1  UNL1       -0.4645
      3 C           5.5251   -0.2531    0.1002 C.2     1  UNL1        0.3389
      4 O           6.2843   -1.0514   -0.4270 O.2     1  UNL1       -0.2450
      5 C           4.0675   -0.1866   -0.1943 C.ar    1  UNL1        0.0590
      6 C           3.5335   -1.1106   -1.1022 C.ar    1  UNL1       -0.0474
      7 C           2.1710   -1.0912   -1.4138 C.ar    1  UNL1       -0.0555
      8 C           1.3230   -0.1446   -0.8252 C.ar    1  UNL1       -0.0196
      9 C          -0.1474   -0.1123   -1.1532 C.3     1  UNL1        0.0991
     10 O          -0.8794   -0.4980    0.0093 O.3     1  UNL1       -0.2648
     11 N          -2.2333   -0.2456   -0.2078 N.am    1  UNL1       -0.1055
     12 C          -3.0936   -1.2394   -0.5570 C.2     1  UNL1        0.2773
     13 O          -2.8829   -2.3795   -0.9238 O.2     1  UNL1       -0.2674
     14 C          -4.4300   -0.6734   -0.3630 C.ar    1  UNL1        0.0515
     15 C          -5.6749   -1.2137   -0.6184 C.ar    1  UNL1       -0.0488
     16 C          -6.7880   -0.4281   -0.3021 C.ar    1  UNL1       -0.0610
     17 C          -6.6327    0.8564    0.2613 C.ar    1  UNL1       -0.0610
     18 C          -5.3615    1.3795    0.5191 C.ar    1  UNL1       -0.0488
     19 C          -4.2774    0.5893    0.1912 C.ar    1  UNL1        0.0515
     20 C          -2.8430    0.8340    0.3527 C.2     1  UNL1        0.2773
     21 O          -2.3750    1.8064    0.9139 O.2     1  UNL1       -0.2674
     22 C           1.8593    0.7763    0.0870 C.ar    1  UNL1       -0.0555
     23 C           3.2216    0.7577    0.4006 C.ar    1  UNL1       -0.0474
     24 H           7.5483   -0.2904    1.7810 H       1  UNL1        0.0661
     25 H           7.4299    1.4500    2.1098 H       1  UNL1        0.0661
     26 H           7.8695    0.9107    0.4763 H       1  UNL1        0.0661
     27 H           4.1770   -1.8544   -1.5688 H       1  UNL1        0.0626
     28 H           1.7785   -1.8254   -2.1147 H       1  UNL1        0.0621
     29 H          -0.4215    0.9026   -1.4690 H       1  UNL1        0.0634
     30 H          -0.3802   -0.8022   -1.9730 H       1  UNL1        0.0634
     31 H          -5.7817   -2.2078   -1.0414 H       1  UNL1        0.0625
     32 H          -7.7897   -0.8137   -0.4862 H       1  UNL1        0.0618
     33 H          -7.5168    1.4442    0.5040 H       1  UNL1        0.0618
     34 H          -5.2296    2.3614    0.9623 H       1  UNL1        0.0625
     35 H           1.2110    1.5095    0.5658 H       1  UNL1        0.0621
     36 H           3.6049    1.4834    1.1134 H       1  UNL1        0.0626
@<TRIPOS>BOND
     1     1     2    1
     2     2     3    1
     3     3     4    2
     4     3     5    1
     5     5     6   ar
     6     6     7   ar
     7     7     8   ar
     8     8     9    1
     9     9    10    1
    10    10    11    1
    11    11    12   am
    12    12    13    2
    13    12    14    1
    14    14    15   ar
    15    15    16   ar
    16    16    17   ar
    17    17    18   ar
    18    18    19   ar
    19    19    20    1
    20    20    21    2
    21     8    22   ar
    22    22    23   ar
    23    23     5   ar
    24    20    11   am
    25    19    14   ar
    26     1    24    1
    27     1    25    1
    28     1    26    1
    29     6    27    1
    30     7    28    1
    31     9    29    1
    32     9    30    1
    33    15    31    1
    34    16    32    1
    35    17    33    1
    36    18    34    1
    37    22    35    1
    38    23    36    1
