@<TRIPOS>MOLECULE
*****
 36 37 0 0 0
SMALL
GASTEIGER

@<TRIPOS>ATOM
      1 C           7.5117    0.2945   -0.3047 C.3     1  UNL1        0.0820
      2 O           6.1124    0.1930   -0.0382 O.3     1  UNL1       -0.4645
      3 C           5.3385    0.1836   -1.1519 C.2     1  UNL1        0.3389
      4 O           5.7413    0.2531   -2.3027 O.2     1  UNL1       -0.2450
      5 C           3.8983    0.0756   -0.7929 C.ar    1  UNL1        0.0591
      6 C           2.9571    0.0521   -1.8280 C.ar    1  UNL1       -0.0460
      7 C           1.5915   -0.0483   -1.5397 C.ar    1  UNL1       -0.0397
      8 C           1.1442   -0.1294   -0.2150 C.ar    1  UNL1        0.0337
      9 N          -0.2481   -0.2235   -0.0107 N.am    1  UNL1       -0.2815
     10 C          -0.9107   -0.3847    1.1934 C.2     1  UNL1        0.2484
     11 O          -0.4009   -0.5427    2.2961 O.2     1  UNL1       -0.2699
     12 C          -2.3978   -0.4071    1.0950 C.ar    1  UNL1        0.0405
     13 C          -3.1132   -1.2255    1.9753 C.ar    1  UNL1       -0.0494
     14 C          -4.5051   -1.2725    1.9079 C.ar    1  UNL1       -0.0576
     15 C          -5.1895   -0.4958    0.9686 C.ar    1  UNL1       -0.0199
     16 C          -4.4844    0.3394    0.1002 C.ar    1  UNL1        0.1208
     17 O          -5.0313    1.1548   -0.8523 O.3     1  UNL1       -0.4951
     18 C          -6.4514    1.1893   -0.9317 C.3     1  UNL1        0.0788
     19 C          -3.0886    0.3848    0.1692 C.ar    1  UNL1       -0.0078
     20 C           2.0852   -0.1016    0.8158 C.ar    1  UNL1       -0.0397
     21 C           3.4540   -0.0011    0.5315 C.ar    1  UNL1       -0.0460
     22 H           7.8540   -0.5647   -0.8900 H       1  UNL1        0.0661
     23 H           8.0397    0.2933    0.6529 H       1  UNL1        0.0661
     24 H           7.7364    1.2320   -0.8230 H       1  UNL1        0.0661
     25 H           3.2817    0.1120   -2.8654 H       1  UNL1        0.0626
     26 H           0.8881   -0.0638   -2.3685 H       1  UNL1        0.0636
     27 H          -0.8131   -0.2363   -0.8499 H       1  UNL1        0.1551
     28 H          -2.5863   -1.8283    2.7128 H       1  UNL1        0.0625
     29 H          -5.0583   -1.9132    2.5907 H       1  UNL1        0.0619
     30 H          -6.2727   -0.5608    0.9475 H       1  UNL1        0.0654
     31 H          -6.8539    0.2102   -1.2114 H       1  UNL1        0.0660
     32 H          -6.8913    1.5458    0.0056 H       1  UNL1        0.0660
     33 H          -6.7247    1.8987   -1.7188 H       1  UNL1        0.0660
     34 H          -2.5586    1.0689   -0.4880 H       1  UNL1        0.0662
     35 H           1.7887   -0.1526    1.8593 H       1  UNL1        0.0636
     36 H           4.1569    0.0166    1.3611 H       1  UNL1        0.0626
@<TRIPOS>BOND
     1     1     2    1
     2     2     3    1
     3     3     4    2
     4     3     5    1
     5     5     6   ar
     6     6     7   ar
     7     7     8   ar
     8     8     9    1
     9     9    10   am
    10    10    11    2
    11    10    12    1
    12    12    13   ar
    13    13    14   ar
    14    14    15   ar
    15    15    16   ar
    16    16    17    1
    17    17    18    1
    18    16    19   ar
    19     8    20   ar
    20    20    21   ar
    21    21     5   ar
    22    19    12   ar
    23     1    22    1
    24     1    23    1
    25     1    24    1
    26     6    25    1
    27     7    26    1
    28     9    27    1
    29    13    28    1
    30    14    29    1
    31    15    30    1
    32    18    31    1
    33    18    32    1
    34    18    33    1
    35    19    34    1
    36    20    35    1
    37    21    36    1
