@<TRIPOS>MOLECULE
*****
 30 31 0 0 0
SMALL
GASTEIGER

@<TRIPOS>ATOM
      1 C          -2.4819   -1.4142   -3.5674 C.3     1  UNL1        0.0821
      2 O          -1.9323   -1.3201   -2.2540 O.3     1  UNL1       -0.4623
      3 C          -2.6108   -2.0419   -1.3145 C.2     1  UNL1        0.3747
      4 O          -3.6073   -2.7172   -1.5441 O.2     1  UNL1       -0.2415
      5 C          -1.9876   -1.8931   -0.0191 C.ar    1  UNL1        0.2138
      6 C          -2.3266   -2.4301    1.2063 C.ar    1  UNL1       -0.0073
      7 C          -1.3735   -1.9529    2.1349 C.ar    1  UNL1        0.0046
      8 C          -0.4819   -1.1396    1.4463 C.ar    1  UNL1        0.2587
      9 S           0.9540   -0.2291    2.0196 S.O2    1  UNL1        0.0940
     10 O           2.0908   -1.0595    1.6833 O.2     1  UNL1       -0.1499
     11 O           0.6488    0.1142    3.3928 O.2     1  UNL1       -0.1499
     12 N           1.0574    1.2080    1.1283 N.3     1  UNL1       -0.1738
     13 C           1.2822    1.0806   -0.3372 C.3     1  UNL1        0.0207
     14 C           2.4696    1.9847   -0.6434 C.3     1  UNL1       -0.0373
     15 C           2.3952    3.0364    0.4446 C.3     1  UNL1       -0.0373
     16 C           2.0122    2.2098    1.6618 C.3     1  UNL1        0.0207
     17 O          -0.8730   -1.1133    0.1227 O.2     1  UNL1       -0.4300
     18 H          -2.4578   -2.4498   -3.9210 H       1  UNL1        0.0661
     19 H          -3.5032   -1.0210   -3.5853 H       1  UNL1        0.0661
     20 H          -1.8664   -0.8064   -4.2365 H       1  UNL1        0.0661
     21 H          -3.1656   -3.0868    1.3963 H       1  UNL1        0.0658
     22 H          -1.3215   -2.1616    3.1956 H       1  UNL1        0.0670
     23 H           0.3816    1.4342   -0.8510 H       1  UNL1        0.0444
     24 H           1.4837    0.0563   -0.6616 H       1  UNL1        0.0444
     25 H           3.4047    1.4183   -0.5544 H       1  UNL1        0.0278
     26 H           2.4231    2.4086   -1.6504 H       1  UNL1        0.0278
     27 H           3.3372    3.5741    0.5822 H       1  UNL1        0.0278
     28 H           1.6091    3.7654    0.2141 H       1  UNL1        0.0278
     29 H           2.8996    1.7205    2.0790 H       1  UNL1        0.0444
     30 H           1.5401    2.8254    2.4321 H       1  UNL1        0.0444
@<TRIPOS>BOND
     1     1     2    1
     2     2     3    1
     3     3     4    2
     4     3     5    1
     5     5     6   ar
     6     6     7   ar
     7     7     8   ar
     8     8     9    1
     9     9    10    2
    10     9    11    2
    11     9    12    1
    12    12    13    1
    13    13    14    1
    14    14    15    1
    15    15    16    1
    16     8    17   ar
    17    17     5   ar
    18    16    12    1
    19     1    18    1
    20     1    19    1
    21     1    20    1
    22     6    21    1
    23     7    22    1
    24    13    23    1
    25    13    24    1
    26    14    25    1
    27    14    26    1
    28    15    27    1
    29    15    28    1
    30    16    29    1
    31    16    30    1
