@<TRIPOS>MOLECULE
*****
 36 38 0 0 0
SMALL
GASTEIGER

@<TRIPOS>ATOM
      1 C          -3.1298    1.6536   -2.4093 C.3     1  UNL1        0.0820
      2 O          -3.0887    1.2345   -1.0455 O.3     1  UNL1       -0.4644
      3 C          -2.1824    0.2545   -0.8023 C.2     1  UNL1        0.3409
      4 O          -1.4814   -0.3034   -1.6316 O.2     1  UNL1       -0.2449
      5 C          -2.1589   -0.0634    0.6474 C.ar    1  UNL1        0.0829
      6 C          -3.3663   -0.0555    1.3674 C.ar    1  UNL1       -0.0458
      7 C          -3.3941   -0.4476    2.7059 C.ar    1  UNL1       -0.0609
      8 C          -2.2210   -0.8541    3.3351 C.ar    1  UNL1       -0.0598
      9 C          -1.0162   -0.8669    2.6291 C.ar    1  UNL1       -0.0369
     10 C          -0.9682   -0.4785    1.2779 C.ar    1  UNL1        0.0651
     11 N           0.3038   -0.4404    0.6219 N.ar    1  UNL1       -0.2638
     12 C           1.1051   -1.5656    0.5002 C.ar    1  UNL1        0.1144
     13 C           0.5659   -2.9190    0.9154 C.3     1  UNL1       -0.0058
     14 N           2.3096   -1.5465    0.0198 N.ar    1  UNL1       -0.2335
     15 C           2.8222   -0.3376   -0.4590 C.ar    1  UNL1        0.0782
     16 C           4.1082   -0.3209   -1.0048 C.ar    1  UNL1       -0.0355
     17 C           4.6537    0.8628   -1.5097 C.ar    1  UNL1       -0.0597
     18 C           3.9134    2.0436   -1.4730 C.ar    1  UNL1       -0.0609
     19 C           2.6291    2.0392   -0.9303 C.ar    1  UNL1       -0.0473
     20 C           2.0924    0.8464   -0.4287 C.ar    1  UNL1        0.0652
     21 C           0.7496    0.8102    0.1751 C.ar    1  UNL1        0.2663
     22 O           0.1288    1.8663    0.2994 O.2     1  UNL1       -0.2666
     23 H          -2.1531    2.0341   -2.7248 H       1  UNL1        0.0661
     24 H          -3.4516    0.8290   -3.0530 H       1  UNL1        0.0661
     25 H          -3.8597    2.4635   -2.4931 H       1  UNL1        0.0661
     26 H          -4.2949    0.2434    0.8855 H       1  UNL1        0.0626
     27 H          -4.3319   -0.4349    3.2567 H       1  UNL1        0.0618
     28 H          -2.2400   -1.1475    4.3824 H       1  UNL1        0.0618
     29 H          -0.1064   -1.1440    3.1576 H       1  UNL1        0.0638
     30 H           0.7528   -3.0764    1.9809 H       1  UNL1        0.0308
     31 H           1.0859   -3.7073    0.3610 H       1  UNL1        0.0308
     32 H          -0.5017   -3.0142    0.7041 H       1  UNL1        0.0308
     33 H           4.6855   -1.2415   -1.0393 H       1  UNL1        0.0639
     34 H           5.6550    0.8597   -1.9332 H       1  UNL1        0.0618
     35 H           4.3356    2.9653   -1.8659 H       1  UNL1        0.0618
     36 H           2.0498    2.9591   -0.8972 H       1  UNL1        0.0626
@<TRIPOS>BOND
     1     1     2    1
     2     2     3    1
     3     3     4    2
     4     3     5    1
     5     5     6   ar
     6     6     7   ar
     7     7     8   ar
     8     8     9   ar
     9     9    10   ar
    10    10    11    1
    11    11    12   ar
    12    12    13    1
    13    12    14   ar
    14    14    15   ar
    15    15    16   ar
    16    16    17   ar
    17    17    18   ar
    18    18    19   ar
    19    19    20   ar
    20    20    21   ar
    21    21    22    2
    22    10     5   ar
    23    21    11   ar
    24    20    15   ar
    25     1    23    1
    26     1    24    1
    27     1    25    1
    28     6    26    1
    29     7    27    1
    30     8    28    1
    31     9    29    1
    32    13    30    1
    33    13    31    1
    34    13    32    1
    35    16    33    1
    36    17    34    1
    37    18    35    1
    38    19    36    1
