@<TRIPOS>MOLECULE
*****
 31 32 0 0 0
SMALL
GASTEIGER

@<TRIPOS>ATOM
      1 C          -3.1403   -0.2370   -3.8076 C.3     1  UNL1        0.0820
      2 O          -3.2386   -0.5741   -2.4226 O.3     1  UNL1       -0.4644
      3 C          -2.1079   -0.3419   -1.7102 C.2     1  UNL1        0.3407
      4 O          -1.0674    0.1150   -2.1660 O.2     1  UNL1       -0.2449
      5 C          -2.2819   -0.7167   -0.2716 C.ar    1  UNL1        0.0801
      6 C          -3.5120   -1.2366    0.1746 C.ar    1  UNL1       -0.0460
      7 C          -3.6903   -1.5904    1.5108 C.ar    1  UNL1       -0.0609
      8 C          -2.6446   -1.4287    2.4113 C.ar    1  UNL1       -0.0600
      9 C          -1.4176   -0.9136    1.9827 C.ar    1  UNL1       -0.0396
     10 C          -1.2135   -0.5507    0.6452 C.ar    1  UNL1        0.0488
     11 N           0.0216   -0.0265    0.1871 N.am    1  UNL1       -0.2684
     12 C           1.1869    0.2189    0.8933 C.2     1  UNL1        0.3085
     13 O           1.3427    0.0103    2.0901 O.2     1  UNL1       -0.2521
     14 N           2.1581    0.7365    0.0516 N.am    1  UNL1       -0.2635
     15 C           3.4229    1.0806    0.4627 C.ar    1  UNL1        0.0728
     16 C           4.0678    1.0367    1.6742 C.ar    1  UNL1       -0.0331
     17 C           5.4082    1.5187    1.5741 C.ar    1  UNL1       -0.0529
     18 C           5.7232    1.9080    0.2900 C.ar    1  UNL1       -0.0225
     19 S           4.4066    1.6912   -0.7834 S.2     1  UNL1       -0.0819
     20 H          -2.9373    0.8317   -3.9280 H       1  UNL1        0.0661
     21 H          -2.3646   -0.8371   -4.2934 H       1  UNL1        0.0661
     22 H          -4.1002   -0.4630   -4.2800 H       1  UNL1        0.0661
     23 H          -4.3463   -1.3731   -0.5095 H       1  UNL1        0.0626
     24 H          -4.6430   -1.9913    1.8481 H       1  UNL1        0.0618
     25 H          -2.7763   -1.7026    3.4559 H       1  UNL1        0.0618
     26 H          -0.6356   -0.8086    2.7287 H       1  UNL1        0.0636
     27 H           0.0467    0.1994   -0.8048 H       1  UNL1        0.1564
     28 H           1.9520    0.8797   -0.9254 H       1  UNL1        0.1569
     29 H           3.6182    0.6812    2.5931 H       1  UNL1        0.0642
     30 H           6.1019    1.5751    2.4038 H       1  UNL1        0.0623
     31 H           6.6605    2.3087   -0.0706 H       1  UNL1        0.0694
@<TRIPOS>BOND
     1     1     2    1
     2     2     3    1
     3     3     4    2
     4     3     5    1
     5     5     6   ar
     6     6     7   ar
     7     7     8   ar
     8     8     9   ar
     9     9    10   ar
    10    10    11    1
    11    11    12   am
    12    12    13    2
    13    12    14   am
    14    14    15    1
    15    15    16   ar
    16    16    17   ar
    17    17    18   ar
    18    18    19   ar
    19    10     5   ar
    20    19    15   ar
    21     1    20    1
    22     1    21    1
    23     1    22    1
    24     6    23    1
    25     7    24    1
    26     8    25    1
    27     9    26    1
    28    11    27    1
    29    14    28    1
    30    16    29    1
    31    17    30    1
    32    18    31    1
