@<TRIPOS>MOLECULE
*****
 33 34 0 0 0
SMALL
GASTEIGER

@<TRIPOS>ATOM
      1 C          -1.1629    2.9501   -0.4526 C.3     1  UNL1        0.0820
      2 O          -1.4557    1.6683    0.1070 O.3     1  UNL1       -0.4644
      3 C          -2.4366    0.9950   -0.5368 C.2     1  UNL1        0.3407
      4 O          -3.0774    1.3876   -1.4980 O.2     1  UNL1       -0.2449
      5 C          -2.6971   -0.2828    0.1637 C.ar    1  UNL1        0.0801
      6 C          -4.0561   -0.6158    0.3155 C.ar    1  UNL1       -0.0460
      7 C          -4.4264   -1.7945    0.9539 C.ar    1  UNL1       -0.0609
      8 C          -3.4411   -2.6408    1.4456 C.ar    1  UNL1       -0.0600
      9 C          -2.0870   -2.3229    1.2798 C.ar    1  UNL1       -0.0397
     10 C          -1.6830   -1.1588    0.6120 C.ar    1  UNL1        0.0467
     11 N          -0.3101   -0.8346    0.4161 N.am    1  UNL1       -0.2959
     12 C           0.8112   -1.6317    0.3447 C.2     1  UNL1        0.1408
     13 S           0.9270   -3.3003    0.2748 S.2     1  UNL1       -0.0182
     14 N           2.0201   -0.9609    0.2842 N.am    1  UNL1       -0.2674
     15 C           2.2831    0.3929    0.2325 C.2     1  UNL1        0.2216
     16 O           1.4432    1.2809    0.2265 O.2     1  UNL1       -0.2751
     17 C           3.7302    0.7258    0.1936 C.3     1  UNL1        0.0360
     18 C           4.2652    1.5905   -0.9243 C.3     1  UNL1       -0.0412
     19 C           4.6435    0.1406   -0.8592 C.3     1  UNL1       -0.0412
     20 H          -0.7488    2.8374   -1.4592 H       1  UNL1        0.0661
     21 H          -0.4152    3.4353    0.1806 H       1  UNL1        0.0661
     22 H          -2.0588    3.5788   -0.4697 H       1  UNL1        0.0661
     23 H          -4.8280    0.0511   -0.0653 H       1  UNL1        0.0626
     24 H          -5.4768   -2.0460    1.0747 H       1  UNL1        0.0618
     25 H          -3.7191   -3.5547    1.9659 H       1  UNL1        0.0618
     26 H          -1.3691   -3.0000    1.7292 H       1  UNL1        0.0636
     27 H          -0.1347    0.1524    0.2008 H       1  UNL1        0.1539
     28 H           2.8188   -1.5800    0.2467 H       1  UNL1        0.1565
     29 H           4.1536    0.9148    1.1757 H       1  UNL1        0.0394
     30 H           3.5781    1.9077   -1.7019 H       1  UNL1        0.0273
     31 H           5.0181    2.3296   -0.6749 H       1  UNL1        0.0273
     32 H           4.2313   -0.5118   -1.6213 H       1  UNL1        0.0273
     33 H           5.6604   -0.1033   -0.5717 H       1  UNL1        0.0273
@<TRIPOS>BOND
     1     1     2    1
     2     2     3    1
     3     3     4    2
     4     3     5    1
     5     5     6   ar
     6     6     7   ar
     7     7     8   ar
     8     8     9   ar
     9     9    10   ar
    10    10    11    1
    11    11    12    1
    12    12    13    2
    13    12    14    1
    14    14    15   am
    15    15    16    2
    16    15    17    1
    17    17    18    1
    18    18    19    1
    19    10     5   ar
    20    19    17    1
    21     1    20    1
    22     1    21    1
    23     1    22    1
    24     6    23    1
    25     7    24    1
    26     8    25    1
    27     9    26    1
    28    11    27    1
    29    14    28    1
    30    17    29    1
    31    18    30    1
    32    18    31    1
    33    19    32    1
    34    19    33    1
