@<TRIPOS>MOLECULE
*****
 29 30 0 0 0
SMALL
GASTEIGER

@<TRIPOS>ATOM
      1 C           4.8314    0.9203   -2.6518 C.3     1  UNL1        0.0820
      2 O           3.7430    1.3416   -1.8319 O.3     1  UNL1       -0.4633
      3 C           3.0656    0.3196   -1.2278 C.2     1  UNL1        0.3627
      4 O           3.3502   -0.8673   -1.3688 O.2     1  UNL1       -0.2430
      5 C           1.9648    0.7892   -0.4050 C.ar    1  UNL1        0.2102
      6 N           1.6013    2.1137   -0.3021 N.ar    1  UNL1       -0.1208
      7 N           0.5608    2.2018    0.5141 N.ar    1  UNL1       -0.0629
      8 N           0.2595    0.9537    0.9276 N.ar    1  UNL1       -0.2260
      9 C          -0.7827    0.7582    1.9208 C.3     1  UNL1        0.0702
     10 C          -1.9891    0.0430    1.3605 C.ar    1  UNL1       -0.0260
     11 C          -2.6906    0.5639    0.2620 C.ar    1  UNL1       -0.0568
     12 C          -3.8089   -0.1000   -0.2441 C.ar    1  UNL1       -0.0614
     13 C          -4.2441   -1.2847    0.3458 C.ar    1  UNL1       -0.0617
     14 C          -3.5650   -1.8055    1.4452 C.ar    1  UNL1       -0.0614
     15 C          -2.4457   -1.1442    1.9536 C.ar    1  UNL1       -0.0568
     16 C           1.1093    0.0245    0.3734 C.ar    1  UNL1        0.1494
     17 N           1.0342   -1.3097    0.6190 N.pl3   1  UNL1       -0.3414
     18 H           4.4728    0.2909   -3.4723 H       1  UNL1        0.0661
     19 H           5.2990    1.8116   -3.0792 H       1  UNL1        0.0661
     20 H           5.5798    0.3903   -2.0542 H       1  UNL1        0.0661
     21 H          -1.0820    1.7377    2.3117 H       1  UNL1        0.0560
     22 H          -0.3288    0.1982    2.7466 H       1  UNL1        0.0560
     23 H          -2.3690    1.4915   -0.2104 H       1  UNL1        0.0621
     24 H          -4.3419    0.3099   -1.0986 H       1  UNL1        0.0618
     25 H          -5.1167   -1.7991   -0.0489 H       1  UNL1        0.0618
     26 H          -3.9113   -2.7256    1.9095 H       1  UNL1        0.0618
     27 H          -1.9351   -1.5645    2.8180 H       1  UNL1        0.0621
     28 H           0.1253   -1.7388    0.7901 H       1  UNL1        0.1438
     29 H           1.6138   -1.9203    0.0351 H       1  UNL1        0.1438
@<TRIPOS>BOND
     1     1     2    1
     2     2     3    1
     3     3     4    2
     4     3     5    1
     5     5     6   ar
     6     6     7   ar
     7     7     8   ar
     8     8     9    1
     9     9    10    1
    10    10    11   ar
    11    11    12   ar
    12    12    13   ar
    13    13    14   ar
    14    14    15   ar
    15     8    16   ar
    16    16    17    1
    17    16     5   ar
    18    15    10   ar
    19     1    18    1
    20     1    19    1
    21     1    20    1
    22     9    21    1
    23     9    22    1
    24    11    23    1
    25    12    24    1
    26    13    25    1
    27    14    26    1
    28    15    27    1
    29    17    28    1
    30    17    29    1
