@<TRIPOS>MOLECULE
*****
 42 46 0 0 0
SMALL
GASTEIGER

@<TRIPOS>ATOM
      1 C           6.4187    2.0872   -2.3915 C.3     1  UNL1        0.0820
      2 O           5.3967    1.3915   -1.6773 O.3     1  UNL1       -0.4640
      3 C           5.8624    0.5485   -0.7081 C.2     1  UNL1        0.3485
      4 O           7.0535    0.3966   -0.4623 O.2     1  UNL1       -0.2443
      5 C           4.7749   -0.1292   -0.0213 C.ar    1  UNL1        0.1325
      6 S           3.0898    0.1818   -0.4623 S.2     1  UNL1       -0.0778
      7 C           2.6568   -1.0160    0.8232 C.ar    1  UNL1        0.0382
      8 C           3.7232   -1.5767    1.5233 C.ar    1  UNL1        0.0329
      9 C           3.4323   -2.4582    2.5046 C.ar    1  UNL1       -0.0127
     10 S           1.7198   -2.6058    2.5876 S.2     1  UNL1       -0.0943
     11 C           1.4581   -1.4996    1.2832 C.ar    1  UNL1        0.0403
     12 C           0.1453   -1.1666    0.8102 C.ar    1  UNL1        0.0284
     13 C          -0.9340   -0.7714    1.5702 C.ar    1  UNL1       -0.0350
     14 C          -2.1224   -0.5220    0.7978 C.ar    1  UNL1        0.0361
     15 C          -1.9018   -0.7653   -0.5561 C.ar    1  UNL1        0.0657
     16 S          -0.2786   -1.2765   -0.8379 S.2     1  UNL1       -0.0839
     17 C          -2.9323   -0.5940   -1.4927 C.ar    1  UNL1        0.1427
     18 O          -2.6960   -0.8610   -2.8359 O.3     1  UNL1       -0.4933
     19 C          -2.3047    0.3390   -3.5047 C.3     1  UNL1        0.0789
     20 C          -4.2354   -0.2433   -1.0867 C.ar    1  UNL1        0.0355
     21 C          -5.4479   -0.0913   -1.8472 C.ar    1  UNL1       -0.0433
     22 C          -6.5270    0.2653   -1.0759 C.ar    1  UNL1       -0.0230
     23 S          -6.1064    0.4204    0.5661 S.2     1  UNL1       -0.0929
     24 C          -4.4549    0.0054    0.2685 C.ar    1  UNL1        0.0651
     25 C          -3.4057   -0.0970    1.1947 C.ar    1  UNL1        0.1427
     26 O          -3.6481    0.1350    2.5431 O.3     1  UNL1       -0.4933
     27 C          -3.3817    1.5037    2.8532 C.3     1  UNL1        0.0789
     28 C           4.9279   -1.0532    1.0159 C.ar    1  UNL1        0.1527
     29 F           6.1262   -1.4158    1.4996 F       1  UNL1       -0.2034
     30 H           5.9359    2.7273   -3.1350 H       1  UNL1        0.0661
     31 H           6.9974    2.7214   -1.7128 H       1  UNL1        0.0661
     32 H           7.0703    1.3804   -2.9147 H       1  UNL1        0.0661
     33 H           4.0875   -3.0061    3.1681 H       1  UNL1        0.0701
     34 H          -0.8936   -0.6558    2.6474 H       1  UNL1        0.0636
     35 H          -2.0924    0.0857   -4.5476 H       1  UNL1        0.0660
     36 H          -1.3953    0.7654   -3.0682 H       1  UNL1        0.0660
     37 H          -3.1118    1.0792   -3.4942 H       1  UNL1        0.0660
     38 H          -5.5112   -0.2491   -2.9172 H       1  UNL1        0.0630
     39 H          -7.5446    0.4371   -1.3991 H       1  UNL1        0.0694
     40 H          -2.3231    1.7435    2.7068 H       1  UNL1        0.0660
     41 H          -3.6202    1.6592    3.9095 H       1  UNL1        0.0660
     42 H          -4.0075    2.1805    2.2618 H       1  UNL1        0.0660
@<TRIPOS>BOND
     1     1     2    1
     2     2     3    1
     3     3     4    2
     4     3     5    1
     5     5     6   ar
     6     6     7   ar
     7     7     8   ar
     8     8     9   ar
     9     9    10   ar
    10    10    11   ar
    11    11    12    1
    12    12    13   ar
    13    13    14   ar
    14    14    15   ar
    15    15    16   ar
    16    15    17   ar
    17    17    18    1
    18    18    19    1
    19    17    20   ar
    20    20    21   ar
    21    21    22   ar
    22    22    23   ar
    23    23    24   ar
    24    24    25   ar
    25    25    26    1
    26    26    27    1
    27     8    28   ar
    28    28    29    1
    29    28     5   ar
    30    11     7   ar
    31    16    12   ar
    32    24    20   ar
    33    25    14   ar
    34     1    30    1
    35     1    31    1
    36     1    32    1
    37     9    33    1
    38    13    34    1
    39    19    35    1
    40    19    36    1
    41    19    37    1
    42    21    38    1
    43    22    39    1
    44    27    40    1
    45    27    41    1
    46    27    42    1
