@<TRIPOS>MOLECULE
*****
 27 28 0 0 0
SMALL
GASTEIGER

@<TRIPOS>ATOM
      1 C           4.7332   -0.5555    0.1019 C.3     1  UNL1        0.0820
      2 O           3.3729   -0.9747    0.2038 O.3     1  UNL1       -0.4641
      3 C           2.4775   -0.0854   -0.3172 C.2     1  UNL1        0.3465
      4 O           2.7877    0.9734   -0.8499 O.2     1  UNL1       -0.2444
      5 C           1.1178   -0.5695   -0.1611 C.ar    1  UNL1        0.1113
      6 S           0.7657   -2.2269   -0.3564 S.2     1  UNL1       -0.0810
      7 C          -0.9235   -1.9792   -0.1909 C.ar    1  UNL1        0.0209
      8 C          -1.9255   -2.9686   -0.2552 C.ar    1  UNL1       -0.0474
      9 C          -3.2595   -2.5975   -0.0858 C.ar    1  UNL1       -0.0607
     10 C          -3.5934   -1.2731    0.1470 C.ar    1  UNL1       -0.0611
     11 C          -2.5953   -0.2956    0.2106 C.ar    1  UNL1       -0.0527
     12 C          -1.2266   -0.6331    0.0311 C.ar    1  UNL1        0.0040
     13 C          -0.0260    0.1828    0.0644 C.ar    1  UNL1        0.0877
     14 C           0.0364    1.6163    0.3341 C.2     1  UNL1        0.3408
     15 O           0.9027    2.1264    1.0338 O.2     1  UNL1       -0.2449
     16 O          -0.9783    2.3071   -0.2602 O.3     1  UNL1       -0.4644
     17 C          -0.9255    3.7164   -0.0396 C.3     1  UNL1        0.0820
     18 H           5.3603   -1.3272    0.5569 H       1  UNL1        0.0661
     19 H           5.0239   -0.4485   -0.9478 H       1  UNL1        0.0661
     20 H           4.8888    0.3813    0.6461 H       1  UNL1        0.0661
     21 H          -1.6647   -4.0088   -0.4314 H       1  UNL1        0.0629
     22 H          -4.0391   -3.3541   -0.1336 H       1  UNL1        0.0618
     23 H          -4.6347   -0.9901    0.2827 H       1  UNL1        0.0618
     24 H          -2.8866    0.7353    0.3992 H       1  UNL1        0.0624
     25 H          -1.0319    3.9413    1.0263 H       1  UNL1        0.0661
     26 H           0.0062    4.1335   -0.4344 H       1  UNL1        0.0661
     27 H          -1.7624    4.1741   -0.5743 H       1  UNL1        0.0661
@<TRIPOS>BOND
     1     1     2    1
     2     2     3    1
     3     3     4    2
     4     3     5    1
     5     5     6   ar
     6     6     7   ar
     7     7     8   ar
     8     8     9   ar
     9     9    10   ar
    10    10    11   ar
    11    11    12   ar
    12    12    13   ar
    13    13    14    1
    14    14    15    2
    15    14    16    1
    16    16    17    1
    17    13     5   ar
    18    12     7   ar
    19     1    18    1
    20     1    19    1
    21     1    20    1
    22     8    21    1
    23     9    22    1
    24    10    23    1
    25    11    24    1
    26    17    25    1
    27    17    26    1
    28    17    27    1
