@<TRIPOS>MOLECULE
*****
 42 46 0 0 0
SMALL
GASTEIGER

@<TRIPOS>ATOM
      1 C           5.5231    1.7596    2.8643 C.3     1  UNL1        0.0820
      2 O           4.7802    0.9041    1.9957 O.3     1  UNL1       -0.4640
      3 C           5.4927   -0.1475    1.4974 C.2     1  UNL1        0.3485
      4 O           6.6707   -0.3550    1.7664 O.2     1  UNL1       -0.2443
      5 C           4.6584   -0.9554    0.6257 C.ar    1  UNL1        0.1325
      6 S           5.4142   -2.3651   -0.1320 S.2     1  UNL1       -0.0784
      7 C           3.8068   -2.6576   -0.8832 C.ar    1  UNL1        0.0306
      8 C           3.3830   -3.6530   -1.7151 C.ar    1  UNL1       -0.0093
      9 S           1.7216   -3.4359   -2.1088 S.2     1  UNL1       -0.0943
     10 C           1.5802   -1.9852   -1.1767 C.ar    1  UNL1        0.0369
     11 C           0.3450   -1.2548   -1.1170 C.ar    1  UNL1        0.0280
     12 C          -0.9106   -1.7582   -0.8560 C.ar    1  UNL1       -0.0350
     13 C          -1.9470   -0.7598   -0.8803 C.ar    1  UNL1        0.0361
     14 C          -1.4279    0.4961   -1.1875 C.ar    1  UNL1        0.0657
     15 S           0.2788    0.4200   -1.4277 S.2     1  UNL1       -0.0839
     16 C          -2.2668    1.6174   -1.2731 C.ar    1  UNL1        0.1427
     17 O          -1.7313    2.8576   -1.5994 O.3     1  UNL1       -0.4933
     18 C          -1.4024    3.5698   -0.4056 C.3     1  UNL1        0.0789
     19 C          -3.6628    1.4963   -1.1242 C.ar    1  UNL1        0.0355
     20 C          -4.7096    2.4767   -1.2461 C.ar    1  UNL1       -0.0433
     21 C          -5.9621    1.9587   -1.0237 C.ar    1  UNL1       -0.0230
     22 S          -5.9039    0.2950   -0.6690 S.2     1  UNL1       -0.0929
     23 C          -4.1820    0.2396   -0.8115 C.ar    1  UNL1        0.0651
     24 C          -3.3338   -0.8673   -0.6558 C.ar    1  UNL1        0.1427
     25 O          -3.8712   -2.1150   -0.3635 O.3     1  UNL1       -0.4933
     26 C          -3.8881   -2.3140    1.0509 C.3     1  UNL1        0.0789
     27 C           2.7865   -1.7510   -0.5992 C.ar    1  UNL1        0.0405
     28 C           3.3109   -0.7821    0.2923 C.ar    1  UNL1        0.1532
     29 F           2.5641    0.2161    0.7895 F       1  UNL1       -0.2034
     30 H           5.8688    1.2070    3.7435 H       1  UNL1        0.0661
     31 H           6.3664    2.2094    2.3309 H       1  UNL1        0.0661
     32 H           4.8589    2.5612    3.1991 H       1  UNL1        0.0661
     33 H           3.9652   -4.4820   -2.0943 H       1  UNL1        0.0705
     34 H          -1.1021   -2.8049   -0.6488 H       1  UNL1        0.0636
     35 H          -0.9518    4.5226   -0.6990 H       1  UNL1        0.0660
     36 H          -0.6730    3.0236    0.2019 H       1  UNL1        0.0660
     37 H          -2.2987    3.7873    0.1850 H       1  UNL1        0.0660
     38 H          -4.5343    3.5163   -1.4960 H       1  UNL1        0.0630
     39 H          -6.9097    2.4786   -1.0579 H       1  UNL1        0.0694
     40 H          -4.3503   -3.2863    1.2456 H       1  UNL1        0.0660
     41 H          -4.4841   -1.5483    1.5587 H       1  UNL1        0.0660
     42 H          -2.8723   -2.3347    1.4597 H       1  UNL1        0.0660
@<TRIPOS>BOND
     1     1     2    1
     2     2     3    1
     3     3     4    2
     4     3     5    1
     5     5     6   ar
     6     6     7   ar
     7     7     8   ar
     8     8     9   ar
     9     9    10   ar
    10    10    11    1
    11    11    12   ar
    12    12    13   ar
    13    13    14   ar
    14    14    15   ar
    15    14    16   ar
    16    16    17    1
    17    17    18    1
    18    16    19   ar
    19    19    20   ar
    20    20    21   ar
    21    21    22   ar
    22    22    23   ar
    23    23    24   ar
    24    24    25    1
    25    25    26    1
    26    10    27   ar
    27    27    28   ar
    28    28    29    1
    29    28     5   ar
    30    27     7   ar
    31    15    11   ar
    32    23    19   ar
    33    24    13   ar
    34     1    30    1
    35     1    31    1
    36     1    32    1
    37     8    33    1
    38    12    34    1
    39    18    35    1
    40    18    36    1
    41    18    37    1
    42    20    38    1
    43    21    39    1
    44    26    40    1
    45    26    41    1
    46    26    42    1
