@<TRIPOS>MOLECULE
*****
 37 42 0 0 0
SMALL
GASTEIGER

@<TRIPOS>ATOM
      1 SI          4.2096    2.4935    0.6535 Si      1  UNL1        0.0000
      2 C           5.7066    1.3269    0.5665 C.2     1  UNL1        0.0000
      3 C           5.3657    0.0444    0.3347 C.2     1  UNL1        0.0000
      4 C           3.9225   -0.1284    0.2076 C.ar    1  UNL1        0.0000
      5 C           3.1145    1.0308    0.3405 C.ar    1  UNL1        0.0000
      6 C           1.7025    1.0049    0.2394 C.ar    1  UNL1        0.0000
      7 S           0.5422    2.3028    0.3707 S.2     1  UNL1        0.0000
      8 C          -0.7720    1.2585    0.1107 C.ar    1  UNL1        0.0000
      9 C          -2.1535    1.6137    0.0735 C.2     1  UNL1        0.0000
     10 C          -2.9590    0.5476   -0.1551 C.2     1  UNL1        0.0000
     11 SI         -1.9011   -1.0567   -0.3428 Si      1  UNL1        0.0000
     12 C          -0.3620   -0.0465   -0.0731 C.ar    1  UNL1        0.0000
     13 C           1.0116   -0.1922   -0.0025 C.ar    1  UNL1        0.0000
     14 C           1.7969   -1.3931   -0.1438 C.ar    1  UNL1        0.0000
     15 C           1.4292   -2.6854   -0.3792 C.ar    1  UNL1        0.0000
     16 N           2.6140   -3.3979   -0.4137 N.ar    1  UNL1        0.0000
     17 C           3.6907   -2.5546   -0.2028 C.ar    1  UNL1        0.0000
     18 C           3.1967   -1.2824   -0.0298 C.ar    1  UNL1        0.0000
     19 C          -4.3715    0.6383   -0.2376 C.ar    1  UNL1        0.0000
     20 C          -5.2507    1.7045   -0.1231 C.ar    1  UNL1        0.0000
     21 C          -6.5691    1.2201   -0.2935 C.ar    1  UNL1        0.0000
     22 C          -6.4758   -0.1329   -0.5093 C.ar    1  UNL1        0.0000
     23 N          -5.1485   -0.4766   -0.4742 N.ar    1  UNL1        0.0000
     24 H           4.0713    3.0739    2.0131 H       1  UNL1        0.0000
     25 H           4.2410    3.4759   -0.4595 H       1  UNL1        0.0000
     26 H           6.7048    1.7145    0.6980 H       1  UNL1        0.0000
     27 H           6.0608   -0.7779    0.2487 H       1  UNL1        0.0000
     28 H          -2.4900    2.6328    0.2158 H       1  UNL1        0.0000
     29 H          -2.2287   -2.0262    0.7350 H       1  UNL1        0.0000
     30 H          -2.0612   -1.6302   -1.7045 H       1  UNL1        0.0000
     31 H           0.4855   -3.1878   -0.5256 H       1  UNL1        0.0000
     32 H           2.6859   -4.3948   -0.5709 H       1  UNL1        0.0000
     33 H           4.6974   -2.9496   -0.1979 H       1  UNL1        0.0000
     34 H          -4.9739    2.7340    0.0650 H       1  UNL1        0.0000
     35 H          -7.4836    1.7978   -0.2617 H       1  UNL1        0.0000
     36 H          -7.2363   -0.8819   -0.6847 H       1  UNL1        0.0000
     37 H          -4.8125   -1.4198   -0.6061 H       1  UNL1        0.0000
@<TRIPOS>BOND
     1     1     2    1
     2     2     3    2
     3     3     4    1
     4     4     5   ar
     5     5     6   ar
     6     6     7   ar
     7     7     8   ar
     8     8     9    1
     9     9    10    2
    10    10    11    1
    11    11    12    1
    12    12    13   ar
    13    13    14   ar
    14    14    15   ar
    15    15    16   ar
    16    16    17   ar
    17    17    18   ar
    18    10    19    1
    19    19    20   ar
    20    20    21   ar
    21    21    22   ar
    22    22    23   ar
    23     5     1    1
    24    13     6   ar
    25    18    14   ar
    26    23    19   ar
    27    18     4   ar
    28    12     8   ar
    29     1    24    1
    30     1    25    1
    31     2    26    1
    32     3    27    1
    33     9    28    1
    34    11    29    1
    35    11    30    1
    36    15    31    1
    37    16    32    1
    38    17    33    1
    39    20    34    1
    40    21    35    1
    41    22    36    1
    42    23    37    1
