@<TRIPOS>MOLECULE
*****
 42 46 0 0 0
SMALL
GASTEIGER

@<TRIPOS>ATOM
      1 C           6.0000    2.0818   -1.7863 C.3     1  UNL1        0.0820
      2 O           5.1282    1.3162   -0.9544 O.3     1  UNL1       -0.4640
      3 C           5.7673    0.4832   -0.0836 C.2     1  UNL1        0.3485
      4 O           6.9874    0.3892   -0.0074 O.2     1  UNL1       -0.2443
      5 C           4.8009   -0.2508    0.7136 C.ar    1  UNL1        0.1325
      6 S           5.4411   -1.3833    1.9159 S.2     1  UNL1       -0.0784
      7 C           3.7217   -1.7250    2.3159 C.ar    1  UNL1        0.0306
      8 C           3.1702   -2.5616    3.2426 C.ar    1  UNL1       -0.0093
      9 S           1.4510   -2.4742    3.1791 S.2     1  UNL1       -0.0942
     10 C           1.4511   -1.3112    1.8995 C.ar    1  UNL1        0.0397
     11 C           0.2407   -0.8031    1.3195 C.ar    1  UNL1        0.0631
     12 S          -1.0219   -0.1532    2.2652 S.2     1  UNL1       -0.0809
     13 C          -1.9982    0.2081    0.8842 C.ar    1  UNL1        0.0686
     14 C          -1.3620   -0.1685   -0.2981 C.ar    1  UNL1        0.0713
     15 C          -0.0849   -0.7414   -0.0124 C.ar    1  UNL1        0.1500
     16 F           0.7288   -1.2030   -0.9769 F       1  UNL1       -0.2035
     17 C          -2.0350    0.0630   -1.5138 C.ar    1  UNL1        0.1456
     18 O          -1.4142   -0.2719   -2.7096 O.3     1  UNL1       -0.4933
     19 C          -1.7154   -1.6244   -3.0561 C.3     1  UNL1        0.0789
     20 C          -3.2766    0.7169   -1.5424 C.ar    1  UNL1        0.0680
     21 S          -4.2120    1.1641   -2.9313 S.2     1  UNL1       -0.0899
     22 C          -5.4439    1.8534   -1.9801 C.ar    1  UNL1        0.0123
     23 C          -5.1510    1.7448   -0.6487 C.ar    1  UNL1        0.1417
     24 F          -5.9753    2.2123    0.3013 F       1  UNL1       -0.2042
     25 C          -3.9124    1.0962   -0.3585 C.ar    1  UNL1        0.0706
     26 C          -3.2697    0.8017    0.8599 C.ar    1  UNL1        0.1456
     27 O          -3.8596    1.1950    2.0536 O.3     1  UNL1       -0.4933
     28 C          -4.7445    0.1762    2.5219 C.3     1  UNL1        0.0789
     29 C           2.7455   -1.0474    1.5891 C.ar    1  UNL1        0.0406
     30 C           3.4040   -0.1914    0.6739 C.ar    1  UNL1        0.1532
     31 F           2.7315    0.6198   -0.1574 F       1  UNL1       -0.2034
     32 H           6.6337    2.7355   -1.1789 H       1  UNL1        0.0661
     33 H           5.3835    2.7066   -2.4384 H       1  UNL1        0.0661
     34 H           6.6088    1.4228   -2.4133 H       1  UNL1        0.0661
     35 H           3.6927   -3.2038    3.9388 H       1  UNL1        0.0705
     36 H          -2.7936   -1.7758   -3.1747 H       1  UNL1        0.0660
     37 H          -1.3158   -2.3244   -2.3150 H       1  UNL1        0.0660
     38 H          -1.2359   -1.8380   -4.0160 H       1  UNL1        0.0660
     39 H          -6.3162    2.3033   -2.4317 H       1  UNL1        0.0722
     40 H          -5.1579    0.5070    3.4792 H       1  UNL1        0.0660
     41 H          -5.5778    0.0225    1.8284 H       1  UNL1        0.0660
     42 H          -4.2143   -0.7674    2.6895 H       1  UNL1        0.0660
@<TRIPOS>BOND
     1     1     2    1
     2     2     3    1
     3     3     4    2
     4     3     5    1
     5     5     6   ar
     6     6     7   ar
     7     7     8   ar
     8     8     9   ar
     9     9    10   ar
    10    10    11    1
    11    11    12   ar
    12    12    13   ar
    13    13    14   ar
    14    14    15   ar
    15    15    16    1
    16    14    17   ar
    17    17    18    1
    18    18    19    1
    19    17    20   ar
    20    20    21   ar
    21    21    22   ar
    22    22    23   ar
    23    23    24    1
    24    23    25   ar
    25    25    26   ar
    26    26    27    1
    27    27    28    1
    28    10    29   ar
    29    29    30   ar
    30    30    31    1
    31    30     5   ar
    32    29     7   ar
    33    15    11   ar
    34    25    20   ar
    35    26    13   ar
    36     1    32    1
    37     1    33    1
    38     1    34    1
    39     8    35    1
    40    19    36    1
    41    19    37    1
    42    19    38    1
    43    22    39    1
    44    28    40    1
    45    28    41    1
    46    28    42    1
