@<TRIPOS>MOLECULE
*****
 37 38 0 0 0
SMALL
GASTEIGER

@<TRIPOS>ATOM
      1 C           5.4358   -0.2485   -2.6038 C.3     1  UNL1        0.0820
      2 O           5.2219   -0.4778   -1.2114 O.3     1  UNL1       -0.4641
      3 C           3.9385   -0.2710   -0.7966 C.2     1  UNL1        0.3474
      4 O           3.0261    0.0803   -1.5415 O.2     1  UNL1       -0.2443
      5 C           3.7750   -0.5148    0.6282 C.ar    1  UNL1        0.1174
      6 S           5.0823   -1.0228    1.6172 S.2     1  UNL1       -0.0884
      7 C           4.1033   -1.0730    3.0102 C.ar    1  UNL1       -0.0217
      8 C           2.8040   -0.7114    2.7367 C.ar    1  UNL1       -0.0326
      9 C           2.6006   -0.3818    1.3615 C.ar    1  UNL1        0.0559
     10 N           1.4074    0.0197    0.7619 N.am    1  UNL1       -0.2682
     11 C           0.2120    0.2515    1.4047 C.2     1  UNL1        0.3041
     12 O           0.0103    0.1897    2.6104 O.2     1  UNL1       -0.2525
     13 N          -0.7742    0.5921    0.4973 N.am    1  UNL1       -0.2963
     14 C          -2.1510    0.8078    0.9326 C.3     1  UNL1        0.0246
     15 C          -2.8379   -0.5398    1.2245 C.3     1  UNL1       -0.0345
     16 C          -4.3439   -0.4694    1.0085 C.3     1  UNL1       -0.0514
     17 C          -4.6917   -0.1140   -0.4380 C.3     1  UNL1       -0.0529
     18 C          -3.6510    0.7810   -1.1142 C.3     1  UNL1       -0.0514
     19 C          -2.9109    1.6517   -0.1049 C.3     1  UNL1       -0.0345
     20 H           5.2143    0.7923   -2.8596 H       1  UNL1        0.0661
     21 H           4.8281   -0.9338   -3.2030 H       1  UNL1        0.0661
     22 H           6.4900   -0.4412   -2.8210 H       1  UNL1        0.0661
     23 H           4.5193   -1.3641    3.9652 H       1  UNL1        0.0694
     24 H           2.0391   -0.6867    3.5037 H       1  UNL1        0.0642
     25 H           1.4568    0.2526   -0.2247 H       1  UNL1        0.1564
     26 H          -0.6497    0.2292   -0.4364 H       1  UNL1        0.1505
     27 H          -2.1053    1.3884    1.8631 H       1  UNL1        0.0499
     28 H          -2.6228   -0.8461    2.2553 H       1  UNL1        0.0283
     29 H          -2.4254   -1.3281    0.5805 H       1  UNL1        0.0283
     30 H          -4.8115   -1.4241    1.2748 H       1  UNL1        0.0266
     31 H          -4.7695    0.2848    1.6824 H       1  UNL1        0.0266
     32 H          -5.6712    0.3791   -0.4520 H       1  UNL1        0.0265
     33 H          -4.8037   -1.0308   -1.0296 H       1  UNL1        0.0265
     34 H          -4.1414    1.4074   -1.8680 H       1  UNL1        0.0266
     35 H          -2.9275    0.1558   -1.6523 H       1  UNL1        0.0266
     36 H          -2.2305    2.3355   -0.6264 H       1  UNL1        0.0283
     37 H          -3.6459    2.2803    0.4147 H       1  UNL1        0.0283
@<TRIPOS>BOND
     1     1     2    1
     2     2     3    1
     3     3     4    2
     4     3     5    1
     5     5     6   ar
     6     6     7   ar
     7     7     8   ar
     8     8     9   ar
     9     9    10    1
    10    10    11   am
    11    11    12    2
    12    11    13   am
    13    13    14    1
    14    14    15    1
    15    15    16    1
    16    16    17    1
    17    17    18    1
    18    18    19    1
    19     9     5   ar
    20    19    14    1
    21     1    20    1
    22     1    21    1
    23     1    22    1
    24     7    23    1
    25     8    24    1
    26    10    25    1
    27    13    26    1
    28    14    27    1
    29    15    28    1
    30    15    29    1
    31    16    30    1
    32    16    31    1
    33    17    32    1
    34    17    33    1
    35    18    34    1
    36    18    35    1
    37    19    36    1
    38    19    37    1
