@<TRIPOS>MOLECULE
*****
 37 38 0 0 0
SMALL
GASTEIGER

@<TRIPOS>ATOM
      1 C           5.2535   -0.7633    2.2250 C.3     1  UNL1        0.0820
      2 O           4.8992   -0.7886    0.8426 O.3     1  UNL1       -0.4641
      3 C           3.5970   -0.4692    0.5885 C.2     1  UNL1        0.3474
      4 O           2.7793   -0.1865    1.4613 O.2     1  UNL1       -0.2443
      5 C           3.2882   -0.5050   -0.8336 C.ar    1  UNL1        0.1173
      6 S           4.4592   -0.9753   -1.9963 S.2     1  UNL1       -0.0884
      7 C           3.3569   -0.8004   -3.2802 C.ar    1  UNL1       -0.0217
      8 C           2.1203   -0.3855   -2.8407 C.ar    1  UNL1       -0.0326
      9 C           2.0711   -0.1773   -1.4276 C.ar    1  UNL1        0.0539
     10 N           0.9799    0.2295   -0.6513 N.am    1  UNL1       -0.2957
     11 C          -0.2105    0.8527   -1.0010 C.2     1  UNL1        0.1372
     12 S          -0.4679    1.6863   -2.4396 S.2     1  UNL1       -0.0184
     13 N          -1.1896    0.7464    0.0160 N.am    1  UNL1       -0.3122
     14 C          -1.1278   -0.2543    1.0945 C.3     1  UNL1        0.0138
     15 C          -2.4528   -0.9978    1.2536 C.3     1  UNL1       -0.0369
     16 C          -3.6298   -0.0381    1.3984 C.3     1  UNL1       -0.0476
     17 C          -3.6657    1.0044    0.2736 C.3     1  UNL1       -0.0280
     18 C          -4.1025    0.3928   -1.0599 C.3     1  UNL1       -0.0610
     19 C          -2.3043    1.7016    0.1510 C.3     1  UNL1        0.0163
     20 H           4.6662   -1.4979    2.7848 H       1  UNL1        0.0661
     21 H           6.3107   -1.0294    2.3088 H       1  UNL1        0.0661
     22 H           5.1155    0.2409    2.6381 H       1  UNL1        0.0661
     23 H           3.6564   -1.0176   -4.2966 H       1  UNL1        0.0694
     24 H           1.2944   -0.2566   -3.5273 H       1  UNL1        0.0642
     25 H           1.1676    0.2373    0.3492 H       1  UNL1        0.1539
     26 H          -0.3510   -1.0009    0.9080 H       1  UNL1        0.0464
     27 H          -0.8691    0.2768    2.0179 H       1  UNL1        0.0464
     28 H          -2.6130   -1.6450    0.3831 H       1  UNL1        0.0280
     29 H          -2.4025   -1.6547    2.1293 H       1  UNL1        0.0280
     30 H          -4.5689   -0.6027    1.4289 H       1  UNL1        0.0269
     31 H          -3.5448    0.4815    2.3615 H       1  UNL1        0.0269
     32 H          -4.4134    1.7627    0.5398 H       1  UNL1        0.0313
     33 H          -4.1894    1.1694   -1.8273 H       1  UNL1        0.0233
     34 H          -3.3950   -0.3581   -1.4245 H       1  UNL1        0.0233
     35 H          -5.0820   -0.0870   -0.9615 H       1  UNL1        0.0233
     36 H          -2.1050    2.2710    1.0685 H       1  UNL1        0.0467
     37 H          -2.3306    2.4378   -0.6551 H       1  UNL1        0.0467
@<TRIPOS>BOND
     1     1     2    1
     2     2     3    1
     3     3     4    2
     4     3     5    1
     5     5     6   ar
     6     6     7   ar
     7     7     8   ar
     8     8     9   ar
     9     9    10    1
    10    10    11    1
    11    11    12    2
    12    11    13    1
    13    13    14    1
    14    14    15    1
    15    15    16    1
    16    16    17    1
    17    17    18    1
    18    17    19    1
    19     9     5   ar
    20    19    13    1
    21     1    20    1
    22     1    21    1
    23     1    22    1
    24     7    23    1
    25     8    24    1
    26    10    25    1
    27    14    26    1
    28    14    27    1
    29    15    28    1
    30    15    29    1
    31    16    30    1
    32    16    31    1
    33    17    32    1
    34    18    33    1
    35    18    34    1
    36    18    35    1
    37    19    36    1
    38    19    37    1
