@<TRIPOS>MOLECULE
*****
 26 26 0 0 0
SMALL
GASTEIGER

@<TRIPOS>ATOM
      1 C           4.2455   -0.1808    2.1695 C.3     1  UNL1        0.0817
      2 O           3.8375    0.6934    1.1167 O.3     1  UNL1       -0.4679
      3 C           3.0077    0.1139    0.2066 C.2     1  UNL1        0.3073
      4 O           2.6521   -1.0571    0.2159 O.2     1  UNL1       -0.2508
      5 C           2.6270    1.1189   -0.8535 C.3     1  UNL1        0.0532
      6 C           1.4567    0.6100   -1.6888 C.3     1  UNL1        0.0344
      7 C           0.1639    0.5706   -0.8872 C.2     1  UNL1        0.2192
      8 O           0.0420    1.1948    0.1602 O.2     1  UNL1       -0.2754
      9 N          -0.7993   -0.1879   -1.5133 N.am    1  UNL1       -0.2633
     10 C          -2.0745   -0.4301   -1.0687 C.ar    1  UNL1        0.1880
     11 N          -2.9158   -1.1806   -1.7440 N.ar    1  UNL1       -0.1254
     12 N          -4.1400   -1.2906   -1.1170 N.ar    1  UNL1       -0.1355
     13 C          -4.1792   -0.6161    0.0184 C.ar    1  UNL1        0.2062
     14 C          -5.3388   -0.5181    0.9485 C.3     1  UNL1        0.4425
     15 F          -6.4203   -1.2223    0.5190 F       1  UNL1       -0.1639
     16 F          -5.7597    0.7660    1.1121 F       1  UNL1       -0.1639
     17 F          -5.0446   -0.9893    2.1910 F       1  UNL1       -0.1639
     18 S          -2.7070    0.2013    0.3795 S.2     1  UNL1       -0.0266
     19 H           3.3759   -0.5445    2.7260 H       1  UNL1        0.0661
     20 H           4.8273   -1.0166    1.7684 H       1  UNL1        0.0661
     21 H           4.8815    0.3870    2.8542 H       1  UNL1        0.0661
     22 H           3.4993    1.2704   -1.4983 H       1  UNL1        0.0382
     23 H           2.3748    2.0707   -0.3733 H       1  UNL1        0.0382
     24 H           1.6724   -0.3877   -2.0888 H       1  UNL1        0.0364
     25 H           1.2956    1.2866   -2.5361 H       1  UNL1        0.0364
     26 H          -0.5801   -0.6617   -2.3793 H       1  UNL1        0.1568
@<TRIPOS>BOND
     1     1     2    1
     2     2     3    1
     3     3     4    2
     4     3     5    1
     5     5     6    1
     6     6     7    1
     7     7     8    2
     8     7     9   am
     9     9    10    1
    10    10    11   ar
    11    11    12   ar
    12    12    13   ar
    13    13    14    1
    14    14    15    1
    15    14    16    1
    16    14    17    1
    17    13    18   ar
    18    18    10   ar
    19     1    19    1
    20     1    20    1
    21     1    21    1
    22     5    22    1
    23     5    23    1
    24     6    24    1
    25     6    25    1
    26     9    26    1
