@<TRIPOS>MOLECULE
*****
 27 28 0 0 0
SMALL
GASTEIGER

@<TRIPOS>ATOM
      1 C           4.4660    0.3778    0.4732 C.3     1  UNL1        0.0817
      2 O           3.4508    0.3310   -0.5307 O.3     1  UNL1       -0.4668
      3 C           2.2120    0.0117   -0.0525 C.2     1  UNL1        0.3248
      4 O           1.9472   -0.1785    1.1278 O.2     1  UNL1       -0.2491
      5 C           1.2127   -0.0094   -1.2030 C.3     1  UNL1        0.1171
      6 N          -0.0650   -0.5933   -0.8015 N.am    1  UNL1       -0.2546
      7 C          -0.2118   -1.9690   -0.9206 C.2     1  UNL1        0.2580
      8 O           0.6531   -2.7029   -1.3998 O.2     1  UNL1       -0.2715
      9 C          -1.4976   -2.5333   -0.3296 C.3     1  UNL1        0.1658
     10 O          -2.6471   -1.7076   -0.3281 O.3     1  UNL1       -0.4809
     11 C          -2.3637   -0.4064   -0.0144 C.ar    1  UNL1        0.1426
     12 C          -3.4361    0.3361    0.4864 C.ar    1  UNL1       -0.0167
     13 C          -3.2617    1.6781    0.8135 C.ar    1  UNL1       -0.0398
     14 C          -2.0160    2.2694    0.6277 C.ar    1  UNL1        0.0430
     15 CL         -1.7934    3.9275    1.0345 Cl      1  UNL1       -0.0835
     16 C          -0.9448    1.5361    0.1085 C.ar    1  UNL1       -0.0183
     17 C          -1.1082    0.1855   -0.2276 C.ar    1  UNL1        0.0802
     18 H           4.5639   -0.5944    0.9664 H       1  UNL1        0.0661
     19 H           5.4150    0.6148   -0.0157 H       1  UNL1        0.0661
     20 H           4.2461    1.1636    1.2025 H       1  UNL1        0.0661
     21 H           1.6430   -0.6148   -2.0092 H       1  UNL1        0.0584
     22 H           1.0694    1.0017   -1.5950 H       1  UNL1        0.0584
     23 H          -1.2870   -2.8516    0.6988 H       1  UNL1        0.0795
     24 H          -1.7539   -3.4296   -0.9053 H       1  UNL1        0.0795
     25 H          -4.4056   -0.1362    0.6245 H       1  UNL1        0.0655
     26 H          -4.0949    2.2517    1.2105 H       1  UNL1        0.0633
     27 H           0.0076    2.0421   -0.0062 H       1  UNL1        0.0652
@<TRIPOS>BOND
     1     1     2    1
     2     2     3    1
     3     3     4    2
     4     3     5    1
     5     5     6    1
     6     6     7   am
     7     7     8    2
     8     7     9    1
     9     9    10    1
    10    10    11    1
    11    11    12   ar
    12    12    13   ar
    13    13    14   ar
    14    14    15    1
    15    14    16   ar
    16    16    17   ar
    17    17     6    1
    18    17    11   ar
    19     1    18    1
    20     1    19    1
    21     1    20    1
    22     5    21    1
    23     5    22    1
    24     9    23    1
    25     9    24    1
    26    12    25    1
    27    13    26    1
    28    16    27    1
