@<TRIPOS>MOLECULE
*****
 34 36 0 0 0
SMALL
GASTEIGER

@<TRIPOS>ATOM
      1 C          -3.4828    1.5969    1.9048 C.3     1  UNL1        0.0817
      2 O          -2.7434    1.1959    0.7507 O.3     1  UNL1       -0.4667
      3 C          -3.2427    0.0951    0.1221 C.2     1  UNL1        0.3268
      4 O          -4.2692   -0.4912    0.4462 O.2     1  UNL1       -0.2488
      5 C          -2.4026   -0.2856   -1.0664 C.3     1  UNL1        0.1203
      6 N          -1.0240   -0.5749   -0.7067 N.ar    1  UNL1       -0.3352
      7 C           0.0464    0.2118   -1.0436 C.ar    1  UNL1        0.0173
      8 C           1.2042   -0.3640   -0.5442 C.ar    1  UNL1        0.0506
      9 C           2.5843    0.1271   -0.6680 C.2     1  UNL1        0.2299
     10 O           3.5356   -0.6503   -0.6020 O.2     1  UNL1       -0.2833
     11 C           2.7867    1.5535   -0.8706 C.ar    1  UNL1        0.1747
     12 C           3.9396    2.2372   -1.2237 C.ar    1  UNL1       -0.0126
     13 C           3.6164    3.6142   -1.2516 C.ar    1  UNL1       -0.0232
     14 C           2.2914    3.6988   -0.9008 C.ar    1  UNL1        0.0927
     15 O           1.7825    2.4640   -0.6626 O.2     1  UNL1       -0.4597
     16 C           0.7937   -1.5921    0.0857 C.ar    1  UNL1        0.0108
     17 C           1.4879   -2.6274    0.7514 C.ar    1  UNL1       -0.0519
     18 C           0.7847   -3.7154    1.2783 C.ar    1  UNL1       -0.0611
     19 C          -0.5978   -3.7880    1.1544 C.ar    1  UNL1       -0.0598
     20 C          -1.3135   -2.7811    0.5016 C.ar    1  UNL1       -0.0376
     21 C          -0.5970   -1.6933   -0.0256 C.ar    1  UNL1        0.0502
     22 H          -2.9776    2.4596    2.3477 H       1  UNL1        0.0661
     23 H          -4.4973    1.8954    1.6233 H       1  UNL1        0.0661
     24 H          -3.5060    0.7913    2.6455 H       1  UNL1        0.0661
     25 H          -2.8147   -1.1830   -1.5400 H       1  UNL1        0.0607
     26 H          -2.4242    0.5245   -1.8025 H       1  UNL1        0.0607
     27 H          -0.1005    1.1236   -1.6089 H       1  UNL1        0.0816
     28 H           4.8977    1.7785   -1.4308 H       1  UNL1        0.0656
     29 H           4.2701    4.4421   -1.4885 H       1  UNL1        0.0649
     30 H           1.6006    4.5213   -0.7762 H       1  UNL1        0.1029
     31 H           2.5696   -2.5849    0.8545 H       1  UNL1        0.0624
     32 H           1.3269   -4.5081    1.7876 H       1  UNL1        0.0618
     33 H          -1.1311   -4.6397    1.5706 H       1  UNL1        0.0618
     34 H          -2.3939   -2.8518    0.4143 H       1  UNL1        0.0638
@<TRIPOS>BOND
     1     1     2    1
     2     2     3    1
     3     3     4    2
     4     3     5    1
     5     5     6    1
     6     6     7   ar
     7     7     8   ar
     8     8     9    1
     9     9    10    2
    10     9    11    1
    11    11    12   ar
    12    12    13   ar
    13    13    14   ar
    14    14    15   ar
    15     8    16   ar
    16    16    17   ar
    17    17    18   ar
    18    18    19   ar
    19    19    20   ar
    20    20    21   ar
    21    21     6   ar
    22    15    11   ar
    23    21    16   ar
    24     1    22    1
    25     1    23    1
    26     1    24    1
    27     5    25    1
    28     5    26    1
    29     7    27    1
    30    12    28    1
    31    13    29    1
    32    14    30    1
    33    17    31    1
    34    18    32    1
    35    19    33    1
    36    20    34    1
