@<TRIPOS>MOLECULE
*****
 36 36 0 0 0
SMALL
GASTEIGER

@<TRIPOS>ATOM
      1 C           6.0598    1.0636   -0.2060 C.3     1  UNL1        0.0817
      2 O           5.4787   -0.1335   -0.7256 O.3     1  UNL1       -0.4674
      3 C           4.1666   -0.3105   -0.3943 C.2     1  UNL1        0.3168
      4 O           3.5084    0.4742    0.2778 O.2     1  UNL1       -0.2499
      5 C           3.6392   -1.6017   -0.9666 C.3     1  UNL1        0.0918
      6 S           3.2250   -2.8180    0.3412 S.3     1  UNL1       -0.1370
      7 C           1.8371   -1.9599    1.1886 C.3     1  UNL1        0.0795
      8 C           1.2697   -2.8786    2.2683 C.3     1  UNL1       -0.0449
      9 C           0.7134   -1.5348    0.2323 C.2     1  UNL1        0.2314
     10 O           0.5533   -2.0414   -0.8752 O.2     1  UNL1       -0.2742
     11 N          -0.0834   -0.5445    0.7776 N.am    1  UNL1       -0.2624
     12 C          -1.2095   -0.0929    0.1448 C.ar    1  UNL1        0.1878
     13 N          -1.7503   -0.4547   -0.9918 N.ar    1  UNL1       -0.1256
     14 N          -2.9168    0.2374   -1.2497 N.ar    1  UNL1       -0.1444
     15 C          -3.2095    1.1005   -0.3002 C.ar    1  UNL1        0.1062
     16 C          -4.4260    1.9834   -0.2801 C.3     1  UNL1        0.0040
     17 C          -4.5740    2.7363   -1.6049 C.3     1  UNL1       -0.0567
     18 C          -5.6739    1.1527    0.0120 C.3     1  UNL1       -0.0567
     19 S          -2.0635    1.1170    0.9928 S.2     1  UNL1       -0.0351
     20 H           7.1402    1.0232   -0.3716 H       1  UNL1        0.0661
     21 H           5.8700    1.1401    0.8757 H       1  UNL1        0.0661
     22 H           5.6540    1.9306   -0.7280 H       1  UNL1        0.0661
     23 H           4.4090   -2.0490   -1.5983 H       1  UNL1        0.0491
     24 H           2.7923   -1.3825   -1.6190 H       1  UNL1        0.0491
     25 H           2.2444   -1.0772    1.6834 H       1  UNL1        0.0504
     26 H           0.4909   -2.3649    2.8450 H       1  UNL1        0.0245
     27 H           0.8133   -3.7794    1.8454 H       1  UNL1        0.0245
     28 H           2.0455   -3.1812    2.9741 H       1  UNL1        0.0245
     29 H           0.1474   -0.1063    1.6496 H       1  UNL1        0.1568
     30 H          -4.3265    2.7341    0.5134 H       1  UNL1        0.0364
     31 H          -3.6808    3.3312   -1.8169 H       1  UNL1        0.0236
     32 H          -5.4309    3.4129   -1.5645 H       1  UNL1        0.0236
     33 H          -4.7266    2.0536   -2.4473 H       1  UNL1        0.0236
     34 H          -5.5923    0.6457    0.9770 H       1  UNL1        0.0236
     35 H          -5.8299    0.3844   -0.7518 H       1  UNL1        0.0236
     36 H          -6.5644    1.7900    0.0392 H       1  UNL1        0.0236
@<TRIPOS>BOND
     1     1     2    1
     2     2     3    1
     3     3     4    2
     4     3     5    1
     5     5     6    1
     6     6     7    1
     7     7     8    1
     8     7     9    1
     9     9    10    2
    10     9    11   am
    11    11    12    1
    12    12    13   ar
    13    13    14   ar
    14    14    15   ar
    15    15    16    1
    16    16    17    1
    17    16    18    1
    18    15    19   ar
    19    19    12   ar
    20     1    20    1
    21     1    21    1
    22     1    22    1
    23     5    23    1
    24     5    24    1
    25     7    25    1
    26     8    26    1
    27     8    27    1
    28     8    28    1
    29    11    29    1
    30    16    30    1
    31    17    31    1
    32    17    32    1
    33    17    33    1
    34    18    34    1
    35    18    35    1
    36    18    36    1
