@<TRIPOS>MOLECULE
*****
 41 43 0 0 0
SMALL
GASTEIGER

@<TRIPOS>ATOM
      1 C           7.3327    1.7268   -0.0948 C.3     1  UNL1        0.0833
      2 O           6.3360    1.5598    0.9146 O.3     1  UNL1       -0.4526
      3 C           5.1256    1.1617    0.4376 C.2     1  UNL1        0.4197
      4 O           4.8825    0.9620   -0.7445 O.2     1  UNL1       -0.2246
      5 N           4.2509    1.0470    1.4956 N.am    1  UNL1       -0.1722
      6 N           2.8926    0.8648    1.4155 N.2     1  UNL1       -0.1845
      7 C           2.4195    0.1305    0.4522 C.2     1  UNL1        0.0616
      8 C           1.0012   -0.0619    0.2727 C.ar    1  UNL1        0.0614
      9 S          -0.1005    0.9516    1.1187 S.2     1  UNL1       -0.0506
     10 C          -1.4479    0.1858    0.3628 C.ar    1  UNL1        0.1619
     11 N          -2.7488    0.5304    0.5934 N.pl3   1  UNL1       -0.3096
     12 C          -3.8068   -0.3037    0.0247 C.3     1  UNL1        0.0140
     13 C          -5.0271   -0.3054    0.9421 C.3     1  UNL1       -0.0371
     14 C          -5.5799    1.0993    1.1726 C.3     1  UNL1       -0.0502
     15 C          -4.5235    2.1865    0.9928 C.3     1  UNL1       -0.0371
     16 C          -3.1255    1.7047    1.3756 C.3     1  UNL1        0.0140
     17 N          -1.0970   -0.7827   -0.4526 N.ar    1  UNL1       -0.2236
     18 C           0.2825   -0.9460   -0.5098 C.ar    1  UNL1        0.0954
     19 C           0.8318   -2.1114   -1.4323 C.ar    1  UNL1        0.0387
     20 C          -0.0236   -2.9028   -2.1763 C.ar    1  UNL1       -0.0454
     21 C           0.6644   -3.8956   -2.9327 C.ar    1  UNL1       -0.0541
     22 C           2.0248   -3.8324   -2.7365 C.ar    1  UNL1       -0.0237
     23 S           2.4523   -2.5871   -1.6475 S.2     1  UNL1       -0.0951
     24 H           8.2573    2.0479    0.3927 H       1  UNL1        0.0661
     25 H           7.5229    0.7784   -0.6069 H       1  UNL1        0.0661
     26 H           7.0313    2.5004   -0.8079 H       1  UNL1        0.0661
     27 H           4.5754    1.4648    2.3605 H       1  UNL1        0.1807
     28 H           3.0908   -0.3873   -0.2421 H       1  UNL1        0.0857
     29 H          -3.4804   -1.3441   -0.0961 H       1  UNL1        0.0464
     30 H          -4.0769    0.0724   -0.9697 H       1  UNL1        0.0464
     31 H          -4.7435   -0.7376    1.9108 H       1  UNL1        0.0280
     32 H          -5.8122   -0.9500    0.5309 H       1  UNL1        0.0280
     33 H          -6.4089    1.2934    0.4815 H       1  UNL1        0.0266
     34 H          -6.0043    1.1524    2.1824 H       1  UNL1        0.0266
     35 H          -4.7961    3.0693    1.5822 H       1  UNL1        0.0280
     36 H          -4.5159    2.5033   -0.0585 H       1  UNL1        0.0280
     37 H          -3.0935    1.4600    2.4442 H       1  UNL1        0.0464
     38 H          -2.4361    2.5388    1.2007 H       1  UNL1        0.0464
     39 H          -1.0996   -2.7708   -2.1782 H       1  UNL1        0.0629
     40 H           0.1849   -4.6158   -3.5840 H       1  UNL1        0.0623
     41 H           2.7888   -4.4576   -3.1781 H       1  UNL1        0.0693
@<TRIPOS>BOND
     1     1     2    1
     2     2     3    1
     3     3     4    2
     4     3     5   am
     5     5     6    1
     6     6     7    2
     7     7     8    1
     8     8     9   ar
     9     9    10   ar
    10    10    11    1
    11    11    12    1
    12    12    13    1
    13    13    14    1
    14    14    15    1
    15    15    16    1
    16    10    17   ar
    17    17    18   ar
    18    18    19    1
    19    19    20   ar
    20    20    21   ar
    21    21    22   ar
    22    22    23   ar
    23    18     8   ar
    24    23    19   ar
    25    16    11    1
    26     1    24    1
    27     1    25    1
    28     1    26    1
    29     5    27    1
    30     7    28    1
    31    12    29    1
    32    12    30    1
    33    13    31    1
    34    13    32    1
    35    14    33    1
    36    14    34    1
    37    15    35    1
    38    15    36    1
    39    16    37    1
    40    16    38    1
    41    20    39    1
    42    21    40    1
    43    22    41    1
