@<TRIPOS>MOLECULE
*****
 31 33 0 0 0
SMALL
GASTEIGER

@<TRIPOS>ATOM
      1 C           4.0680   -2.2526    0.8287 C.3     1  UNL1        0.0790
      2 O           3.6378   -0.9148    0.6224 O.3     1  UNL1       -0.4915
      3 C           2.3164   -0.7118    0.3109 C.ar    1  UNL1        0.1615
      4 C           1.9094    0.6307    0.1806 C.ar    1  UNL1        0.1621
      5 O           2.8844    1.5782    0.3766 O.3     1  UNL1       -0.4914
      6 C           2.4756    2.9345    0.4768 C.3     1  UNL1        0.0790
      7 C           0.5791    0.9248   -0.1468 C.ar    1  UNL1       -0.0071
      8 C           1.3821   -1.7344    0.1241 C.ar    1  UNL1       -0.0157
      9 C           0.0558   -1.4315   -0.1973 C.ar    1  UNL1       -0.0489
     10 C          -0.3573   -0.1032   -0.3412 C.ar    1  UNL1        0.0042
     11 C          -1.7535    0.2069   -0.7032 C.ar    1  UNL1        0.0779
     12 C          -2.0024    0.8938   -1.8344 C.ar    1  UNL1       -0.0173
     13 C          -3.4348    1.1535   -2.1369 C.ar    1  UNL1        0.0335
     14 N          -4.4527    0.7832   -1.4259 N.ar    1  UNL1       -0.2190
     15 C          -4.1623    0.0839   -0.2892 C.ar    1  UNL1        0.2533
     16 N          -4.9848   -0.4120    0.6091 N.ar    1  UNL1       -0.1974
     17 C          -4.1551   -0.9994    1.5099 C.ar    1  UNL1        0.1406
     18 N          -2.8528   -0.9169    1.2458 N.ar    1  UNL1       -0.1518
     19 N          -2.8396   -0.2124    0.0833 N.ar    1  UNL1       -0.1963
     20 H           3.5296   -2.7181    1.6609 H       1  UNL1        0.0660
     21 H           3.9701   -2.8439   -0.0876 H       1  UNL1        0.0660
     22 H           5.1293   -2.2254    1.0940 H       1  UNL1        0.0660
     23 H           1.7325    3.0699    1.2698 H       1  UNL1        0.0660
     24 H           2.1010    3.3022   -0.4839 H       1  UNL1        0.0660
     25 H           3.3548    3.5305    0.7399 H       1  UNL1        0.0660
     26 H           0.2514    1.9539   -0.2515 H       1  UNL1        0.0662
     27 H           1.6512   -2.7808    0.2227 H       1  UNL1        0.0655
     28 H          -0.6505   -2.2492   -0.3307 H       1  UNL1        0.0625
     29 H          -1.2510    1.2504   -2.5262 H       1  UNL1        0.0654
     30 H          -3.6174    1.7201   -3.0658 H       1  UNL1        0.0831
     31 H          -4.5141   -1.5099    2.3949 H       1  UNL1        0.1066
@<TRIPOS>BOND
     1     1     2    1
     2     2     3    1
     3     3     4   ar
     4     4     5    1
     5     5     6    1
     6     4     7   ar
     7     3     8   ar
     8     8     9   ar
     9     9    10   ar
    10    10    11    1
    11    11    12   ar
    12    12    13   ar
    13    13    14   ar
    14    14    15   ar
    15    15    16   ar
    16    16    17   ar
    17    17    18   ar
    18    18    19   ar
    19    10     7   ar
    20    19    11   ar
    21    19    15   ar
    22     1    20    1
    23     1    21    1
    24     1    22    1
    25     6    23    1
    26     6    24    1
    27     6    25    1
    28     7    26    1
    29     8    27    1
    30     9    28    1
    31    12    29    1
    32    13    30    1
    33    17    31    1
