@<TRIPOS>MOLECULE
*****
 31 33 0 0 0
SMALL
GASTEIGER

@<TRIPOS>ATOM
      1 C          -4.7895   -2.1764   -0.2749 C.3     1  UNL1        0.0790
      2 O          -4.2440   -0.8692   -0.1755 O.3     1  UNL1       -0.4915
      3 C          -2.8768   -0.7504   -0.1371 C.ar    1  UNL1        0.1615
      4 C          -1.9884   -1.8286   -0.1893 C.ar    1  UNL1       -0.0156
      5 C          -0.6079   -1.6098   -0.1440 C.ar    1  UNL1       -0.0473
      6 C          -2.3705    0.5614   -0.0383 C.ar    1  UNL1        0.1622
      7 O          -3.3063    1.5664    0.0080 O.3     1  UNL1       -0.4914
      8 C          -2.8330    2.9022    0.1078 C.3     1  UNL1        0.0790
      9 C          -0.9857    0.7687    0.0063 C.ar    1  UNL1       -0.0056
     10 C          -0.0924   -0.3123   -0.0459 C.ar    1  UNL1        0.0246
     11 C           1.3495   -0.0772    0.0018 C.ar    1  UNL1        0.1839
     12 N           2.2663   -1.0552   -0.0430 N.ar    1  UNL1       -0.1437
     13 N           3.4276   -0.3722    0.0284 N.ar    1  UNL1       -0.2036
     14 C           4.7279   -0.8624    0.0247 C.ar    1  UNL1        0.0344
     15 C           5.7619   -0.0139    0.1042 C.ar    1  UNL1       -0.0252
     16 C           5.3898    1.4272    0.1920 C.ar    1  UNL1        0.0329
     17 N           4.1867    1.9145    0.1977 N.ar    1  UNL1       -0.2190
     18 C           3.1733    0.9997    0.1142 C.ar    1  UNL1        0.2533
     19 N           1.8743    1.1892    0.0979 N.ar    1  UNL1       -0.1892
     20 H          -5.8797   -2.0835   -0.2930 H       1  UNL1        0.0660
     21 H          -4.4825   -2.6632   -1.2065 H       1  UNL1        0.0660
     22 H          -4.5228   -2.7835    0.5965 H       1  UNL1        0.0660
     23 H          -2.3348   -2.8535   -0.2654 H       1  UNL1        0.0655
     24 H           0.0636   -2.4654   -0.1862 H       1  UNL1        0.0626
     25 H          -3.7042    3.5641    0.1328 H       1  UNL1        0.0660
     26 H          -2.2339    3.1758   -0.7669 H       1  UNL1        0.0660
     27 H          -2.2739    3.0553    1.0367 H       1  UNL1        0.0660
     28 H          -0.5732    1.7707    0.0824 H       1  UNL1        0.0662
     29 H           4.8336   -1.9365   -0.0446 H       1  UNL1        0.0832
     30 H           6.8021   -0.3056    0.1079 H       1  UNL1        0.0648
     31 H           6.2430    2.1236    0.2574 H       1  UNL1        0.0831
@<TRIPOS>BOND
     1     1     2    1
     2     2     3    1
     3     3     4   ar
     4     4     5   ar
     5     3     6   ar
     6     6     7    1
     7     7     8    1
     8     6     9   ar
     9     9    10   ar
    10    10    11    1
    11    11    12   ar
    12    12    13   ar
    13    13    14   ar
    14    14    15   ar
    15    15    16   ar
    16    16    17   ar
    17    17    18   ar
    18    18    19   ar
    19    10     5   ar
    20    19    11   ar
    21    18    13   ar
    22     1    20    1
    23     1    21    1
    24     1    22    1
    25     4    23    1
    26     5    24    1
    27     8    25    1
    28     8    26    1
    29     8    27    1
    30     9    28    1
    31    14    29    1
    32    15    30    1
    33    16    31    1
