@<TRIPOS>MOLECULE
*****
 49 56 0 0 0
SMALL
GASTEIGER

@<TRIPOS>ATOM
      1 SI         -4.6882    2.3887   -1.9733 Si      1  UNL1        0.0000
      2 C          -6.2729    2.0106   -1.0552 C.2     1  UNL1        0.0000
      3 C          -6.1201    1.0565   -0.1195 C.2     1  UNL1        0.0000
      4 C          -4.7441    0.5115   -0.0113 C.ar    1  UNL1        0.0000
      5 C          -3.8435    1.1201   -0.9131 C.ar    1  UNL1        0.0000
      6 C          -2.4877    0.7667   -0.9436 C.ar    1  UNL1        0.0000
      7 S          -1.2786    1.3066   -2.0554 S.2     1  UNL1        0.0000
      8 C          -0.0079    0.5345   -1.2090 C.ar    1  UNL1        0.0000
      9 C           1.3821    0.5656   -1.5378 C.ar    1  UNL1        0.0000
     10 C           2.3702    0.0087   -0.7006 C.ar    1  UNL1        0.0000
     11 C           3.7819    0.0442   -1.0019 C.ar    1  UNL1        0.0000
     12 C           4.4212   -0.7583   -1.9846 C.ar    1  UNL1        0.0000
     13 C           5.8305   -0.7082   -2.2901 C.ar    1  UNL1        0.0000
     14 C           6.7542    0.1531   -1.6534 C.ar    1  UNL1        0.0000
     15 C           6.1059    0.9330   -0.7063 C.ar    1  UNL1        0.0000
     16 C           6.6659    1.8874    0.0994 C.ar    1  UNL1        0.0000
     17 O           5.6961    2.4425    0.8904 O.2     1  UNL1        0.0000
     18 C           4.5100    1.8328    0.5791 C.ar    1  UNL1        0.0000
     19 C           4.7150    0.8896   -0.3954 C.ar    1  UNL1        0.0000
     20 C           1.8118   -0.5099    0.4672 C.ar    1  UNL1        0.0000
     21 C           2.5168   -1.0333    1.5310 C.ar    1  UNL1        0.0000
     22 N           1.6158   -1.3341    2.5315 N.ar    1  UNL1        0.0000
     23 C           0.3366   -1.0197    2.1246 C.ar    1  UNL1        0.0000
     24 C           0.4513   -0.5867    0.8345 C.ar    1  UNL1        0.0000
     25 C          -0.5410   -0.1055   -0.0996 C.ar    1  UNL1        0.0000
     26 C          -1.9759   -0.1649   -0.0183 C.ar    1  UNL1        0.0000
     27 C          -2.9421   -0.9152    0.7641 C.ar    1  UNL1        0.0000
     28 C          -2.5629   -2.0942    1.4454 C.ar    1  UNL1        0.0000
     29 C          -3.4560   -2.8090    2.2451 C.ar    1  UNL1        0.0000
     30 C          -4.7671   -2.3792    2.3647 C.ar    1  UNL1        0.0000
     31 C          -5.1955   -1.2652    1.6438 C.ar    1  UNL1        0.0000
     32 C          -4.3158   -0.5378    0.8082 C.ar    1  UNL1        0.0000
     33 H          -4.2323    3.7785   -1.7199 H       1  UNL1        0.0000
     34 H          -4.7843    2.0039   -3.4038 H       1  UNL1        0.0000
     35 H          -7.1881    2.5321   -1.2898 H       1  UNL1        0.0000
     36 H          -6.9290    0.7113    0.5084 H       1  UNL1        0.0000
     37 H           1.6913    1.0723   -2.4517 H       1  UNL1        0.0000
     38 H           3.8119   -1.4684   -2.5470 H       1  UNL1        0.0000
     39 H           6.2030   -1.3802   -3.0647 H       1  UNL1        0.0000
     40 H           7.8074    0.1844   -1.8918 H       1  UNL1        0.0000
     41 H           7.6619    2.2828    0.2382 H       1  UNL1        0.0000
     42 H           3.6485    2.1808    1.1318 H       1  UNL1        0.0000
     43 H           3.5758   -1.1868    1.6927 H       1  UNL1        0.0000
     44 H           1.8635   -1.6911    3.4455 H       1  UNL1        0.0000
     45 H          -0.4913   -1.1176    2.8116 H       1  UNL1        0.0000
     46 H          -1.5671   -2.5082    1.3178 H       1  UNL1        0.0000
     47 H          -3.1252   -3.7071    2.7596 H       1  UNL1        0.0000
     48 H          -5.4690   -2.9282    2.9865 H       1  UNL1        0.0000
     49 H          -6.2433   -0.9894    1.7242 H       1  UNL1        0.0000
@<TRIPOS>BOND
     1     1     2    1
     2     2     3    2
     3     3     4    1
     4     4     5   ar
     5     5     6   ar
     6     6     7   ar
     7     7     8   ar
     8     8     9   ar
     9     9    10   ar
    10    10    11    1
    11    11    12   ar
    12    12    13   ar
    13    13    14   ar
    14    14    15   ar
    15    15    16   ar
    16    16    17   ar
    17    17    18   ar
    18    18    19   ar
    19    10    20   ar
    20    20    21   ar
    21    21    22   ar
    22    22    23   ar
    23    23    24   ar
    24    24    25   ar
    25    25    26   ar
    26    26    27   ar
    27    27    28   ar
    28    28    29   ar
    29    29    30   ar
    30    30    31   ar
    31    31    32   ar
    32     5     1    1
    33    26     6   ar
    34    32    27   ar
    35    32     4   ar
    36    25     8   ar
    37    19    11   ar
    38    24    20   ar
    39    19    15   ar
    40     1    33    1
    41     1    34    1
    42     2    35    1
    43     3    36    1
    44     9    37    1
    45    12    38    1
    46    13    39    1
    47    14    40    1
    48    16    41    1
    49    18    42    1
    50    21    43    1
    51    22    44    1
    52    23    45    1
    53    28    46    1
    54    29    47    1
    55    30    48    1
    56    31    49    1
