@<TRIPOS>MOLECULE
*****
 35 37 0 0 0
SMALL
GASTEIGER

@<TRIPOS>ATOM
      1 C          -6.4814    1.2062   -0.7829 C.3     1  UNL1        0.0788
      2 O          -5.9524   -0.0557   -0.3966 O.3     1  UNL1       -0.4951
      3 C          -4.5947   -0.2037   -0.4660 C.ar    1  UNL1        0.1201
      4 C          -3.6822    0.7667   -0.8780 C.ar    1  UNL1       -0.0194
      5 C          -2.3109    0.4802   -0.9009 C.ar    1  UNL1       -0.0511
      6 C          -4.1237   -1.4613   -0.0841 C.ar    1  UNL1       -0.0194
      7 C          -2.7557   -1.7489   -0.1082 C.ar    1  UNL1       -0.0511
      8 C          -1.8342   -0.7749   -0.5038 C.ar    1  UNL1       -0.0247
      9 C          -0.4071   -1.1175   -0.5425 C.2     1  UNL1       -0.0526
     10 C           0.5701   -0.2931   -0.1255 C.2     1  UNL1       -0.0352
     11 C           2.0105   -0.6339   -0.1567 C.ar    1  UNL1        0.0715
     12 C           3.0084    0.1852    0.4395 C.ar    1  UNL1        0.0075
     13 C           4.3497   -0.2491    0.3105 C.ar    1  UNL1       -0.0144
     14 C           5.3965    0.5047    0.8686 C.ar    1  UNL1       -0.0539
     15 C           5.1406    1.6867    1.5606 C.ar    1  UNL1       -0.0612
     16 C           3.8337    2.1297    1.7058 C.ar    1  UNL1       -0.0611
     17 C           2.7824    1.3915    1.1556 C.ar    1  UNL1       -0.0520
     18 C           4.6327   -1.4330   -0.3732 C.ar    1  UNL1       -0.0358
     19 C           3.5882   -2.1575   -0.9095 C.ar    1  UNL1        0.0288
     20 N           2.2988   -1.7877   -0.8172 N.ar    1  UNL1       -0.2549
     21 H          -7.5690    1.1612   -0.6707 H       1  UNL1        0.0660
     22 H          -6.1124    2.0053   -0.1314 H       1  UNL1        0.0660
     23 H          -6.2639    1.4204   -1.8345 H       1  UNL1        0.0660
     24 H          -4.0002    1.7540   -1.1948 H       1  UNL1        0.0654
     25 H          -1.6214    1.2464   -1.2471 H       1  UNL1        0.0625
     26 H          -4.8276   -2.2266    0.2333 H       1  UNL1        0.0654
     27 H          -2.4181   -2.7380    0.1930 H       1  UNL1        0.0625
     28 H          -0.1707   -2.1126   -0.9143 H       1  UNL1        0.0624
     29 H           0.3047    0.6804    0.2650 H       1  UNL1        0.0639
     30 H           6.4285    0.1733    0.7692 H       1  UNL1        0.0624
     31 H           5.9616    2.2571    1.9872 H       1  UNL1        0.0618
     32 H           3.6265    3.0485    2.2487 H       1  UNL1        0.0618
     33 H           1.7765    1.7743    1.3031 H       1  UNL1        0.0624
     34 H           5.6493   -1.7941   -0.4891 H       1  UNL1        0.0639
     35 H           3.7669   -3.0844   -1.4467 H       1  UNL1        0.0830
@<TRIPOS>BOND
     1     1     2    1
     2     2     3    1
     3     3     4   ar
     4     4     5   ar
     5     3     6   ar
     6     6     7   ar
     7     7     8   ar
     8     8     9    1
     9     9    10    2
    10    10    11    1
    11    11    12   ar
    12    12    13   ar
    13    13    14   ar
    14    14    15   ar
    15    15    16   ar
    16    16    17   ar
    17    13    18   ar
    18    18    19   ar
    19    19    20   ar
    20     8     5   ar
    21    20    11   ar
    22    17    12   ar
    23     1    21    1
    24     1    22    1
    25     1    23    1
    26     4    24    1
    27     5    25    1
    28     6    26    1
    29     7    27    1
    30     9    28    1
    31    10    29    1
    32    14    30    1
    33    15    31    1
    34    16    32    1
    35    17    33    1
    36    18    34    1
    37    19    35    1
