@<TRIPOS>MOLECULE
*****
 35 37 0 0 0
SMALL
GASTEIGER

@<TRIPOS>ATOM
      1 C          -6.6879   -0.4798    0.1512 C.3     1  UNL1        0.0788
      2 O          -5.5807   -1.3006   -0.1985 O.3     1  UNL1       -0.4951
      3 C          -4.3382   -0.7401   -0.0924 C.ar    1  UNL1        0.1201
      4 C          -4.0546    0.5560    0.3341 C.ar    1  UNL1       -0.0194
      5 C          -2.7279    1.0026    0.3958 C.ar    1  UNL1       -0.0511
      6 C          -3.2844   -1.5826   -0.4501 C.ar    1  UNL1       -0.0194
      7 C          -1.9598   -1.1377   -0.3892 C.ar    1  UNL1       -0.0511
      8 C          -1.6679    0.1669    0.0223 C.ar    1  UNL1       -0.0248
      9 C          -0.2927    0.6737    0.1322 C.2     1  UNL1       -0.0540
     10 C           0.7093    0.3194   -0.6877 C.2     1  UNL1       -0.0534
     11 C           2.0686    0.8604   -0.5328 C.ar    1  UNL1       -0.0144
     12 C           2.2762    2.2144   -0.7992 C.ar    1  UNL1       -0.0358
     13 C           3.5543    2.7167   -0.6718 C.ar    1  UNL1        0.0288
     14 N           4.6189    1.9754   -0.3055 N.ar    1  UNL1       -0.2549
     15 C           4.4261    0.6706   -0.0486 C.ar    1  UNL1        0.0715
     16 C           5.5221   -0.0943    0.3288 C.ar    1  UNL1       -0.0357
     17 C           5.4108   -1.4564    0.6173 C.ar    1  UNL1       -0.0597
     18 C           4.1737   -2.0781    0.5304 C.ar    1  UNL1       -0.0611
     19 C           3.0568   -1.3341    0.1533 C.ar    1  UNL1       -0.0520
     20 C           3.1618    0.0472   -0.1451 C.ar    1  UNL1        0.0075
     21 H          -6.6435   -0.1851    1.2049 H       1  UNL1        0.0660
     22 H          -7.5989   -1.0689    0.0087 H       1  UNL1        0.0660
     23 H          -6.7522    0.3963   -0.5026 H       1  UNL1        0.0660
     24 H          -4.8379    1.2464    0.6280 H       1  UNL1        0.0654
     25 H          -2.5336    2.0185    0.7334 H       1  UNL1        0.0625
     26 H          -3.4952   -2.5987   -0.7749 H       1  UNL1        0.0654
     27 H          -1.1664   -1.8302   -0.6572 H       1  UNL1        0.0625
     28 H          -0.1160    1.3873    0.9348 H       1  UNL1        0.0624
     29 H           0.5730   -0.3824   -1.5056 H       1  UNL1        0.0624
     30 H           1.4643    2.8644   -1.1072 H       1  UNL1        0.0639
     31 H           3.7667    3.7633   -0.8700 H       1  UNL1        0.0830
     32 H           6.4947    0.3874    0.4014 H       1  UNL1        0.0639
     33 H           6.2909   -2.0223    0.9105 H       1  UNL1        0.0618
     34 H           4.0746   -3.1365    0.7568 H       1  UNL1        0.0618
     35 H           2.0950   -1.8389    0.0987 H       1  UNL1        0.0624
@<TRIPOS>BOND
     1     1     2    1
     2     2     3    1
     3     3     4   ar
     4     4     5   ar
     5     3     6   ar
     6     6     7   ar
     7     7     8   ar
     8     8     9    1
     9     9    10    2
    10    10    11    1
    11    11    12   ar
    12    12    13   ar
    13    13    14   ar
    14    14    15   ar
    15    15    16   ar
    16    16    17   ar
    17    17    18   ar
    18    18    19   ar
    19    19    20   ar
    20     8     5   ar
    21    20    11   ar
    22    20    15   ar
    23     1    21    1
    24     1    22    1
    25     1    23    1
    26     4    24    1
    27     5    25    1
    28     6    26    1
    29     7    27    1
    30     9    28    1
    31    10    29    1
    32    12    30    1
    33    13    31    1
    34    16    32    1
    35    17    33    1
    36    18    34    1
    37    19    35    1
