@<TRIPOS>MOLECULE
*****
 35 37 0 0 0
SMALL
GASTEIGER

@<TRIPOS>ATOM
      1 C          -6.9969    0.7045   -0.3518 C.3     1  UNL1        0.0788
      2 O          -6.1440   -0.1228   -1.1326 O.3     1  UNL1       -0.4951
      3 C          -4.8026   -0.0392   -0.8807 C.ar    1  UNL1        0.1201
      4 C          -4.1941    0.7810    0.0685 C.ar    1  UNL1       -0.0194
      5 C          -2.8015    0.7673    0.2232 C.ar    1  UNL1       -0.0511
      6 C          -4.0061   -0.8659   -1.6751 C.ar    1  UNL1       -0.0194
      7 C          -2.6164   -0.8792   -1.5227 C.ar    1  UNL1       -0.0511
      8 C          -2.0011   -0.0721   -0.5611 C.ar    1  UNL1       -0.0247
      9 C          -0.5375   -0.0914   -0.4467 C.2     1  UNL1       -0.0526
     10 C           0.1229   -0.0505    0.7227 C.2     1  UNL1       -0.0357
     11 C           1.5894   -0.0835    0.8365 C.ar    1  UNL1        0.0646
     12 N           2.3046   -0.1295   -0.3121 N.ar    1  UNL1       -0.2473
     13 C           3.6467   -0.1589   -0.2368 C.ar    1  UNL1        0.0716
     14 C           4.3952   -0.2060   -1.4054 C.ar    1  UNL1       -0.0357
     15 C           5.7930   -0.2382   -1.3836 C.ar    1  UNL1       -0.0597
     16 C           6.4669   -0.2232   -0.1677 C.ar    1  UNL1       -0.0611
     17 C           5.7412   -0.1760    1.0207 C.ar    1  UNL1       -0.0526
     18 C           4.3356   -0.1436    0.9932 C.ar    1  UNL1        0.0004
     19 C           3.5763   -0.0959    2.1669 C.ar    1  UNL1       -0.0506
     20 C           2.1873   -0.0651    2.0895 C.ar    1  UNL1       -0.0357
     21 H          -8.0268    0.5195   -0.6720 H       1  UNL1        0.0660
     22 H          -6.9282    0.4509    0.7113 H       1  UNL1        0.0660
     23 H          -6.7813    1.7648   -0.5207 H       1  UNL1        0.0660
     24 H          -4.7690    1.4486    0.7011 H       1  UNL1        0.0654
     25 H          -2.3502    1.4323    0.9554 H       1  UNL1        0.0625
     26 H          -4.4704   -1.5052   -2.4219 H       1  UNL1        0.0654
     27 H          -2.0218   -1.5327   -2.1571 H       1  UNL1        0.0625
     28 H           0.0096   -0.1678   -1.3847 H       1  UNL1        0.0624
     29 H          -0.4240   -0.0055    1.6592 H       1  UNL1        0.0639
     30 H           3.8745   -0.2178   -2.3600 H       1  UNL1        0.0639
     31 H           6.3479   -0.2748   -2.3174 H       1  UNL1        0.0618
     32 H           7.5533   -0.2481   -0.1446 H       1  UNL1        0.0618
     33 H           6.2755   -0.1645    1.9677 H       1  UNL1        0.0624
     34 H           4.0576   -0.0827    3.1410 H       1  UNL1        0.0625
     35 H           1.5943   -0.0289    2.9969 H       1  UNL1        0.0639
@<TRIPOS>BOND
     1     1     2    1
     2     2     3    1
     3     3     4   ar
     4     4     5   ar
     5     3     6   ar
     6     6     7   ar
     7     7     8   ar
     8     8     9    1
     9     9    10    2
    10    10    11    1
    11    11    12   ar
    12    12    13   ar
    13    13    14   ar
    14    14    15   ar
    15    15    16   ar
    16    16    17   ar
    17    17    18   ar
    18    18    19   ar
    19    19    20   ar
    20     8     5   ar
    21    20    11   ar
    22    18    13   ar
    23     1    21    1
    24     1    22    1
    25     1    23    1
    26     4    24    1
    27     5    25    1
    28     6    26    1
    29     7    27    1
    30     9    28    1
    31    10    29    1
    32    14    30    1
    33    15    31    1
    34    16    32    1
    35    17    33    1
    36    19    34    1
    37    20    35    1
