@<TRIPOS>MOLECULE
*****
 37 41 0 0 0
SMALL
GASTEIGER

@<TRIPOS>ATOM
      1 C           6.7723    0.4629    0.3035 C.3     1  UNL1        0.0788
      2 O           5.8815    0.6656   -0.7857 O.3     1  UNL1       -0.4951
      3 C           4.5473    0.5076   -0.5313 C.ar    1  UNL1        0.1201
      4 C           3.7124    0.7335   -1.6267 C.ar    1  UNL1       -0.0193
      5 C           2.3256    0.6061   -1.5040 C.ar    1  UNL1       -0.0490
      6 C           3.9803    0.1570    0.6937 C.ar    1  UNL1       -0.0193
      7 C           2.5898    0.0271    0.8171 C.ar    1  UNL1       -0.0490
      8 C           1.7498    0.2396   -0.2825 C.ar    1  UNL1        0.0027
      9 C           0.3050    0.1156   -0.1859 C.ar    1  UNL1        0.0971
     10 C          -0.4061   -0.7678    0.6241 C.ar    1  UNL1        0.0745
     11 N          -1.6809   -0.4563    0.3081 N.ar    1  UNL1       -0.2915
     12 C          -1.7650    0.5165   -0.6187 C.ar    1  UNL1        0.1470
     13 C          -3.1823    0.7210   -0.8408 C.ar    1  UNL1        0.0269
     14 C          -3.8988   -0.1973    0.0156 C.ar    1  UNL1        0.0095
     15 C          -5.2761   -0.2326    0.0220 C.ar    1  UNL1       -0.0519
     16 C          -5.9439    0.6546   -0.8315 C.ar    1  UNL1       -0.0611
     17 C          -5.2387    1.5511   -1.6674 C.ar    1  UNL1       -0.0611
     18 C          -3.8405    1.5920   -1.6790 C.ar    1  UNL1       -0.0505
     19 C          -2.8773   -0.9642    0.7594 C.ar    1  UNL1        0.0564
     20 C          -2.8003   -1.9429    1.6745 C.ar    1  UNL1       -0.0371
     21 C          -1.4414   -2.3706    2.0835 C.ar    1  UNL1       -0.0578
     22 C          -0.3021   -1.8171    1.5844 C.ar    1  UNL1       -0.0356
     23 N          -0.5688    0.9087   -0.9777 N.ar    1  UNL1       -0.2266
     24 H           6.7153   -0.5659    0.6740 H       1  UNL1        0.0660
     25 H           7.7904    0.6288   -0.0619 H       1  UNL1        0.0660
     26 H           6.5853    1.1838    1.1062 H       1  UNL1        0.0660
     27 H           4.1419    1.0154   -2.5848 H       1  UNL1        0.0654
     28 H           1.6942    0.7944   -2.3704 H       1  UNL1        0.0625
     29 H           4.5872   -0.0156    1.5759 H       1  UNL1        0.0654
     30 H           2.1761   -0.2194    1.7909 H       1  UNL1        0.0625
     31 H          -5.8265   -0.9160    0.6582 H       1  UNL1        0.0624
     32 H          -7.0324    0.6565   -0.8547 H       1  UNL1        0.0618
     33 H          -5.7974    2.2239   -2.3157 H       1  UNL1        0.0618
     34 H          -3.2970    2.2787   -2.3188 H       1  UNL1        0.0625
     35 H          -3.6685   -2.4261    2.1045 H       1  UNL1        0.0638
     36 H          -1.3837   -3.1757    2.8115 H       1  UNL1        0.0619
     37 H           0.6734   -2.1730    1.8981 H       1  UNL1        0.0639
@<TRIPOS>BOND
     1     1     2    1
     2     2     3    1
     3     3     4   ar
     4     4     5   ar
     5     3     6   ar
     6     6     7   ar
     7     7     8   ar
     8     8     9    1
     9     9    10   ar
    10    10    11   ar
    11    11    12   ar
    12    12    13   ar
    13    13    14   ar
    14    14    15   ar
    15    15    16   ar
    16    16    17   ar
    17    17    18   ar
    18    14    19   ar
    19    19    20   ar
    20    20    21   ar
    21    21    22   ar
    22    12    23   ar
    23     8     5   ar
    24    23     9   ar
    25    22    10   ar
    26    19    11   ar
    27    18    13   ar
    28     1    24    1
    29     1    25    1
    30     1    26    1
    31     4    27    1
    32     5    28    1
    33     6    29    1
    34     7    30    1
    35    15    31    1
    36    16    32    1
    37    17    33    1
    38    18    34    1
    39    20    35    1
    40    21    36    1
    41    22    37    1
