@<TRIPOS>MOLECULE
*****
 39 42 0 0 0
SMALL
GASTEIGER

@<TRIPOS>ATOM
      1 C           3.6569    3.2324    0.8963 C.3     1  UNL1        0.0788
      2 O           3.4956    2.4261   -0.2638 O.3     1  UNL1       -0.4951
      3 C           2.6471    1.3586   -0.1581 C.ar    1  UNL1        0.1201
      4 C           2.4438    0.6552   -1.3475 C.ar    1  UNL1       -0.0193
      5 C           1.5923   -0.4516   -1.3847 C.ar    1  UNL1       -0.0492
      6 C           2.0029    0.9343    1.0040 C.ar    1  UNL1       -0.0193
      7 C           1.1525   -0.1771    0.9719 C.ar    1  UNL1       -0.0492
      8 C           0.9264   -0.8666   -0.2254 C.ar    1  UNL1       -0.0009
      9 C           0.0347   -2.0358   -0.2534 C.ar    1  UNL1        0.0557
     10 C           0.6229   -3.2507   -0.3348 C.ar    1  UNL1       -0.0371
     11 C          -0.1871   -4.4548   -0.3285 C.ar    1  UNL1       -0.0578
     12 C          -1.5245   -4.3986   -0.2126 C.ar    1  UNL1       -0.0362
     13 C          -2.1598   -3.1337   -0.1058 C.ar    1  UNL1        0.0666
     14 C          -3.4545   -2.7156    0.0632 C.ar    1  UNL1        0.0538
     15 N          -3.5212   -1.3540    0.1005 N.ar    1  UNL1       -0.2349
     16 C          -2.2845   -0.9123   -0.0759 C.ar    1  UNL1        0.1456
     17 C          -1.9585    0.5101   -0.1597 C.ar    1  UNL1        0.0178
     18 C          -2.1333    1.3301    0.9627 C.ar    1  UNL1       -0.0511
     19 C          -1.8345    2.6923    0.8965 C.ar    1  UNL1       -0.0611
     20 C          -1.3738    3.2468   -0.2966 C.ar    1  UNL1       -0.0617
     21 C          -1.2253    2.4445   -1.4270 C.ar    1  UNL1       -0.0611
     22 C          -1.5266    1.0823   -1.3624 C.ar    1  UNL1       -0.0511
     23 N          -1.3776   -1.9752   -0.1549 N.ar    1  UNL1       -0.2922
     24 H           2.7013    3.6598    1.2183 H       1  UNL1        0.0660
     25 H           4.1308    2.6670    1.7054 H       1  UNL1        0.0660
     26 H           4.3217    4.0620    0.6369 H       1  UNL1        0.0660
     27 H           2.9483    0.9771   -2.2552 H       1  UNL1        0.0654
     28 H           1.4453   -0.9768   -2.3254 H       1  UNL1        0.0625
     29 H           2.1360    1.4446    1.9517 H       1  UNL1        0.0654
     30 H           0.6585   -0.4916    1.8887 H       1  UNL1        0.0625
     31 H           1.7011   -3.3725   -0.3921 H       1  UNL1        0.0638
     32 H           0.3234   -5.4097   -0.4107 H       1  UNL1        0.0619
     33 H          -2.1225   -5.3046   -0.1997 H       1  UNL1        0.0639
     34 H          -4.3440   -3.3239    0.1609 H       1  UNL1        0.0851
     35 H          -2.5076    0.9058    1.8916 H       1  UNL1        0.0625
     36 H          -1.9685    3.3201    1.7732 H       1  UNL1        0.0618
     37 H          -1.1406    4.3070   -0.3495 H       1  UNL1        0.0618
     38 H          -0.8766    2.8787   -2.3601 H       1  UNL1        0.0618
     39 H          -1.4204    0.4703   -2.2545 H       1  UNL1        0.0625
@<TRIPOS>BOND
     1     1     2    1
     2     2     3    1
     3     3     4   ar
     4     4     5   ar
     5     3     6   ar
     6     6     7   ar
     7     7     8   ar
     8     8     9    1
     9     9    10   ar
    10    10    11   ar
    11    11    12   ar
    12    12    13   ar
    13    13    14   ar
    14    14    15   ar
    15    15    16   ar
    16    16    17    1
    17    17    18   ar
    18    18    19   ar
    19    19    20   ar
    20    20    21   ar
    21    21    22   ar
    22    16    23   ar
    23     8     5   ar
    24    23     9   ar
    25    23    13   ar
    26    22    17   ar
    27     1    24    1
    28     1    25    1
    29     1    26    1
    30     4    27    1
    31     5    28    1
    32     6    29    1
    33     7    30    1
    34    10    31    1
    35    11    32    1
    36    12    33    1
    37    14    34    1
    38    18    35    1
    39    19    36    1
    40    20    37    1
    41    21    38    1
    42    22    39    1
