@<TRIPOS>MOLECULE
*****
 27 29 0 0 0
SMALL
GASTEIGER

@<TRIPOS>ATOM
      1 C           4.8042    0.6663    0.4531 C.3     1  UNL1        0.0788
      2 O           4.0575   -0.3906   -0.1369 O.3     1  UNL1       -0.4951
      3 C           2.6974   -0.3294   -0.0132 C.ar    1  UNL1        0.1201
      4 C           1.9778    0.6452    0.6761 C.ar    1  UNL1       -0.0193
      5 C           0.5790    0.5862    0.7249 C.ar    1  UNL1       -0.0491
      6 C           2.0060   -1.3596   -0.6532 C.ar    1  UNL1       -0.0193
      7 C           0.6100   -1.4198   -0.6080 C.ar    1  UNL1       -0.0491
      8 C          -0.1204   -0.4468    0.0869 C.ar    1  UNL1        0.0008
      9 C          -1.5934   -0.5086    0.1516 C.ar    1  UNL1        0.0777
     10 C          -2.1842   -1.6190    0.6330 C.ar    1  UNL1       -0.0173
     11 C          -3.6698   -1.6004    0.6800 C.ar    1  UNL1        0.0335
     12 N          -4.4411   -0.6272    0.3104 N.ar    1  UNL1       -0.2190
     13 C          -3.8082    0.4849   -0.1673 C.ar    1  UNL1        0.2533
     14 N          -4.3321    1.6087   -0.6057 N.ar    1  UNL1       -0.1974
     15 C          -3.2485    2.3514   -0.9496 C.ar    1  UNL1        0.1406
     16 N          -2.0620    1.7802   -0.7547 N.ar    1  UNL1       -0.1518
     17 N          -2.4067    0.5645   -0.2518 N.ar    1  UNL1       -0.1963
     18 H           4.6735    0.6820    1.5401 H       1  UNL1        0.0660
     19 H           4.5420    1.6321    0.0085 H       1  UNL1        0.0660
     20 H           5.8632    0.4821    0.2480 H       1  UNL1        0.0660
     21 H           2.4692    1.4679    1.1846 H       1  UNL1        0.0654
     22 H           0.0429    1.3650    1.2648 H       1  UNL1        0.0625
     23 H           2.5605   -2.1194   -1.1991 H       1  UNL1        0.0654
     24 H           0.1061   -2.2283   -1.1325 H       1  UNL1        0.0625
     25 H          -1.6638   -2.4979    0.9895 H       1  UNL1        0.0654
     26 H          -4.1331   -2.5208    1.0740 H       1  UNL1        0.0831
     27 H          -3.3262    3.3513   -1.3579 H       1  UNL1        0.1066
@<TRIPOS>BOND
     1     1     2    1
     2     2     3    1
     3     3     4   ar
     4     4     5   ar
     5     3     6   ar
     6     6     7   ar
     7     7     8   ar
     8     8     9    1
     9     9    10   ar
    10    10    11   ar
    11    11    12   ar
    12    12    13   ar
    13    13    14   ar
    14    14    15   ar
    15    15    16   ar
    16    16    17   ar
    17     8     5   ar
    18    17     9   ar
    19    17    13   ar
    20     1    18    1
    21     1    19    1
    22     1    20    1
    23     4    21    1
    24     5    22    1
    25     6    23    1
    26     7    24    1
    27    10    25    1
    28    11    26    1
    29    15    27    1
