@<TRIPOS>MOLECULE
*****
 39 42 0 0 0
SMALL
GASTEIGER

@<TRIPOS>ATOM
      1 C           4.3353    1.7879    2.0698 C.3     1  UNL1        0.0788
      2 O           3.9365    1.9083    0.7106 O.3     1  UNL1       -0.4951
      3 C           3.0065    1.0123    0.2596 C.ar    1  UNL1        0.1201
      4 C           2.6280    1.1855   -1.0738 C.ar    1  UNL1       -0.0193
      5 C           1.6784    0.3446   -1.6596 C.ar    1  UNL1       -0.0476
      6 C           2.4383   -0.0243    1.0008 C.ar    1  UNL1       -0.0193
      7 C           1.4870   -0.8687    0.4154 C.ar    1  UNL1       -0.0476
      8 C           1.0820   -0.6736   -0.9095 C.ar    1  UNL1        0.0180
      9 C           0.0914   -1.5499   -1.5295 C.ar    1  UNL1        0.1457
     10 N           0.4046   -2.4448   -2.4544 N.ar    1  UNL1       -0.2349
     11 C          -0.7496   -3.1034   -2.7614 C.ar    1  UNL1        0.0538
     12 C          -1.8018   -2.6011   -2.0398 C.ar    1  UNL1        0.0666
     13 N          -1.2806   -1.5662   -1.2566 N.ar    1  UNL1       -0.2922
     14 C          -2.1075   -0.7808   -0.4163 C.ar    1  UNL1        0.0557
     15 C          -1.6426    0.3626    0.3834 C.ar    1  UNL1       -0.0011
     16 C          -1.3642    1.5895   -0.2323 C.ar    1  UNL1       -0.0526
     17 C          -0.9331    2.6774    0.5290 C.ar    1  UNL1       -0.0611
     18 C          -0.7925    2.5519    1.9102 C.ar    1  UNL1       -0.0617
     19 C          -1.0871    1.3408    2.5344 C.ar    1  UNL1       -0.0611
     20 C          -1.5148    0.2501    1.7752 C.ar    1  UNL1       -0.0526
     21 C          -3.4278   -1.0673   -0.3621 C.ar    1  UNL1       -0.0371
     22 C          -3.9690   -2.1615   -1.1470 C.ar    1  UNL1       -0.0578
     23 C          -3.1879   -2.8960   -1.9569 C.ar    1  UNL1       -0.0362
     24 H           4.8280    0.8273    2.2528 H       1  UNL1        0.0660
     25 H           3.4858    1.9327    2.7456 H       1  UNL1        0.0660
     26 H           5.0626    2.5791    2.2760 H       1  UNL1        0.0660
     27 H           3.0786    1.9799   -1.6632 H       1  UNL1        0.0654
     28 H           1.4054    0.4865   -2.7025 H       1  UNL1        0.0626
     29 H           2.7111   -0.2062    2.0343 H       1  UNL1        0.0654
     30 H           1.0613   -1.6784    1.0031 H       1  UNL1        0.0626
     31 H          -0.7619   -3.9054   -3.4876 H       1  UNL1        0.0851
     32 H          -1.4696    1.7032   -1.3088 H       1  UNL1        0.0624
     33 H          -0.7014    3.6215    0.0426 H       1  UNL1        0.0618
     34 H          -0.4525    3.3996    2.4995 H       1  UNL1        0.0618
     35 H          -0.9809    1.2452    3.6117 H       1  UNL1        0.0618
     36 H          -1.7388   -0.6899    2.2741 H       1  UNL1        0.0624
     37 H          -4.1223   -0.4950    0.2468 H       1  UNL1        0.0638
     38 H          -5.0326   -2.3654   -1.0669 H       1  UNL1        0.0619
     39 H          -3.6021   -3.7080   -2.5466 H       1  UNL1        0.0639
@<TRIPOS>BOND
     1     1     2    1
     2     2     3    1
     3     3     4   ar
     4     4     5   ar
     5     3     6   ar
     6     6     7   ar
     7     7     8   ar
     8     8     9    1
     9     9    10   ar
    10    10    11   ar
    11    11    12   ar
    12    12    13   ar
    13    13    14   ar
    14    14    15    1
    15    15    16   ar
    16    16    17   ar
    17    17    18   ar
    18    18    19   ar
    19    19    20   ar
    20    14    21   ar
    21    21    22   ar
    22    22    23   ar
    23     8     5   ar
    24    13     9   ar
    25    23    12   ar
    26    20    15   ar
    27     1    24    1
    28     1    25    1
    29     1    26    1
    30     4    27    1
    31     5    28    1
    32     6    29    1
    33     7    30    1
    34    11    31    1
    35    16    32    1
    36    17    33    1
    37    18    34    1
    38    19    35    1
    39    20    36    1
    40    21    37    1
    41    22    38    1
    42    23    39    1
