@<TRIPOS>MOLECULE
*****
 33 35 0 0 0
SMALL
GASTEIGER

@<TRIPOS>ATOM
      1 C           3.9732    4.0712   -3.0197 C.3     1  UNL1        0.0788
      2 O           3.9018    4.0074   -1.6007 O.3     1  UNL1       -0.4951
      3 C           3.0235    3.1066   -1.0664 C.ar    1  UNL1        0.1201
      4 C           2.9892    3.0808    0.3286 C.ar    1  UNL1       -0.0193
      5 C           2.1352    2.2060    1.0105 C.ar    1  UNL1       -0.0490
      6 C           2.1927    2.2460   -1.7798 C.ar    1  UNL1       -0.0193
      7 C           1.3369    1.3694   -1.0991 C.ar    1  UNL1       -0.0490
      8 C           1.2954    1.3362    0.3034 C.ar    1  UNL1        0.0039
      9 C           0.3951    0.4138    0.9973 C.ar    1  UNL1        0.1130
     10 N          -0.4202   -0.4306    0.3437 N.ar    1  UNL1       -0.1471
     11 N          -1.0612   -1.0838    1.3458 N.ar    1  UNL1       -0.1497
     12 C          -2.0336   -2.0873    1.0885 C.ar    1  UNL1        0.0862
     13 C          -2.6727   -2.7379    2.1544 C.ar    1  UNL1       -0.0333
     14 C          -3.6295   -3.7253    1.8983 C.ar    1  UNL1       -0.0423
     15 C          -3.9530   -4.0679    0.5807 C.ar    1  UNL1        0.0519
     16 C          -4.9343   -5.0806    0.3209 C.1     1  UNL1        0.0992
     17 N          -5.7285   -5.9002    0.1099 N.1     1  UNL1       -0.1909
     18 C          -3.3156   -3.4189   -0.4827 C.ar    1  UNL1       -0.0423
     19 C          -2.3580   -2.4308   -0.2323 C.ar    1  UNL1       -0.0333
     20 N          -0.7180   -0.7213    2.6075 N.ar    1  UNL1       -0.1549
     21 C           0.1984    0.2210    2.3823 C.ar    1  UNL1        0.0776
     22 H           4.7141    4.8322   -3.2831 H       1  UNL1        0.0660
     23 H           3.0139    4.3773   -3.4498 H       1  UNL1        0.0660
     24 H           4.3103    3.1184   -3.4412 H       1  UNL1        0.0660
     25 H           3.6354    3.7501    0.8925 H       1  UNL1        0.0654
     26 H           2.1480    2.2266    2.0965 H       1  UNL1        0.0625
     27 H           2.1812    2.2268   -2.8644 H       1  UNL1        0.0654
     28 H           0.6981    0.7075   -1.6817 H       1  UNL1        0.0625
     29 H          -2.4362   -2.4870    3.1875 H       1  UNL1        0.0640
     30 H          -4.1183   -4.2229    2.7345 H       1  UNL1        0.0631
     31 H          -3.5586   -3.6766   -1.5123 H       1  UNL1        0.0631
     32 H          -1.8744   -1.9387   -1.0748 H       1  UNL1        0.0640
     33 H           0.6697    0.7124    3.2217 H       1  UNL1        0.0870
@<TRIPOS>BOND
     1     1     2    1
     2     2     3    1
     3     3     4   ar
     4     4     5   ar
     5     3     6   ar
     6     6     7   ar
     7     7     8   ar
     8     8     9    1
     9     9    10   ar
    10    10    11   ar
    11    11    12    1
    12    12    13   ar
    13    13    14   ar
    14    14    15   ar
    15    15    16    1
    16    16    17    3
    17    15    18   ar
    18    18    19   ar
    19    11    20   ar
    20    20    21   ar
    21     8     5   ar
    22    21     9   ar
    23    19    12   ar
    24     1    22    1
    25     1    23    1
    26     1    24    1
    27     4    25    1
    28     5    26    1
    29     6    27    1
    30     7    28    1
    31    13    29    1
    32    14    30    1
    33    18    31    1
    34    19    32    1
    35    21    33    1
