@<TRIPOS>MOLECULE
*****
 32 34 0 0 0
SMALL
GASTEIGER

@<TRIPOS>ATOM
      1 C           6.4217   -0.4864   -0.4412 C.3     1  UNL1        0.0788
      2 O           5.3396    0.1370   -1.1211 O.3     1  UNL1       -0.4951
      3 C           4.0893   -0.0558   -0.6038 C.ar    1  UNL1        0.1201
      4 C           3.7742   -0.8062    0.5276 C.ar    1  UNL1       -0.0193
      5 C           2.4420   -0.9226    0.9520 C.ar    1  UNL1       -0.0490
      6 C           3.0624    0.5757   -1.3055 C.ar    1  UNL1       -0.0193
      7 C           1.7337    0.4608   -0.8840 C.ar    1  UNL1       -0.0490
      8 C           1.4037   -0.2909    0.2522 C.ar    1  UNL1        0.0039
      9 C           0.0104   -0.4062    0.6866 C.ar    1  UNL1        0.1130
     10 N          -1.0019    0.1882    0.0342 N.ar    1  UNL1       -0.1471
     11 N          -2.0950   -0.1699    0.7572 N.ar    1  UNL1       -0.1497
     12 C          -3.4032    0.2543    0.4051 C.ar    1  UNL1        0.0861
     13 C          -3.5999    1.0688   -0.7197 C.ar    1  UNL1       -0.0345
     14 C          -4.8883    1.4839   -1.0627 C.ar    1  UNL1       -0.0597
     15 C          -5.9798    1.0899   -0.2888 C.ar    1  UNL1       -0.0616
     16 C          -5.7886    0.2799    0.8306 C.ar    1  UNL1       -0.0597
     17 C          -4.5035   -0.1397    1.1806 C.ar    1  UNL1       -0.0345
     18 N          -1.8579   -0.9591    1.8378 N.ar    1  UNL1       -0.1549
     19 C          -0.5334   -1.1033    1.7872 C.ar    1  UNL1        0.0776
     20 H           6.3178   -1.5764   -0.4497 H       1  UNL1        0.0660
     21 H           7.3422   -0.2357   -0.9771 H       1  UNL1        0.0660
     22 H           6.5173   -0.1058    0.5811 H       1  UNL1        0.0660
     23 H           4.5387   -1.3151    1.1053 H       1  UNL1        0.0654
     24 H           2.2425   -1.5176    1.8392 H       1  UNL1        0.0625
     25 H           3.2952    1.1641   -2.1899 H       1  UNL1        0.0654
     26 H           0.9578    0.9669   -1.4556 H       1  UNL1        0.0625
     27 H          -2.7614    1.3869   -1.3361 H       1  UNL1        0.0639
     28 H          -5.0401    2.1153   -1.9346 H       1  UNL1        0.0618
     29 H          -6.9816    1.4148   -0.5586 H       1  UNL1        0.0618
     30 H          -6.6410   -0.0258    1.4321 H       1  UNL1        0.0618
     31 H          -4.3750   -0.7713    2.0575 H       1  UNL1        0.0639
     32 H          -0.0380   -1.6985    2.5408 H       1  UNL1        0.0870
@<TRIPOS>BOND
     1     1     2    1
     2     2     3    1
     3     3     4   ar
     4     4     5   ar
     5     3     6   ar
     6     6     7   ar
     7     7     8   ar
     8     8     9    1
     9     9    10   ar
    10    10    11   ar
    11    11    12    1
    12    12    13   ar
    13    13    14   ar
    14    14    15   ar
    15    15    16   ar
    16    16    17   ar
    17    11    18   ar
    18    18    19   ar
    19     8     5   ar
    20    19     9   ar
    21    17    12   ar
    22     1    20    1
    23     1    21    1
    24     1    22    1
    25     4    23    1
    26     5    24    1
    27     6    25    1
    28     7    26    1
    29    13    27    1
    30    14    28    1
    31    15    29    1
    32    16    30    1
    33    17    31    1
    34    19    32    1
