@<TRIPOS>MOLECULE
*****
 27 29 0 0 0
SMALL
GASTEIGER

@<TRIPOS>ATOM
      1 C          -5.4748    0.3648    0.2090 C.3     1  UNL1        0.0788
      2 O          -4.6043   -0.7173    0.5138 O.3     1  UNL1       -0.4951
      3 C          -3.2620   -0.4789    0.4085 C.ar    1  UNL1        0.1201
      4 C          -2.4485   -1.5708    0.7178 C.ar    1  UNL1       -0.0193
      5 C          -1.0554   -1.4654    0.6514 C.ar    1  UNL1       -0.0475
      6 C          -2.6687    0.7251    0.0305 C.ar    1  UNL1       -0.0193
      7 C          -1.2728    0.8321   -0.0366 C.ar    1  UNL1       -0.0475
      8 C          -0.4505   -0.2607    0.2727 C.ar    1  UNL1        0.0212
      9 C           1.0052   -0.1539    0.2043 C.ar    1  UNL1        0.1838
     10 N           1.6544    0.9655   -0.1497 N.ar    1  UNL1       -0.1437
     11 N           2.9481    0.5919   -0.0691 N.ar    1  UNL1       -0.2036
     12 C           4.0888    1.3437   -0.3244 C.ar    1  UNL1        0.0344
     13 C           5.3000    0.7877   -0.1867 C.ar    1  UNL1       -0.0252
     14 C           5.2934   -0.6396    0.2442 C.ar    1  UNL1        0.0329
     15 N           4.2464   -1.3665    0.4896 N.ar    1  UNL1       -0.2190
     16 C           3.0387   -0.7441    0.3318 C.ar    1  UNL1        0.2533
     17 N           1.8254   -1.2151    0.5042 N.ar    1  UNL1       -0.1892
     18 H          -5.3188    1.2029    0.8962 H       1  UNL1        0.0660
     19 H          -5.3618    0.6809   -0.8333 H       1  UNL1        0.0660
     20 H          -6.5029    0.0138    0.3404 H       1  UNL1        0.0660
     21 H          -2.9010   -2.5142    1.0137 H       1  UNL1        0.0654
     22 H          -0.4460   -2.3331    0.8980 H       1  UNL1        0.0626
     23 H          -3.2575    1.6010   -0.2192 H       1  UNL1        0.0654
     24 H          -0.8312    1.7814   -0.3340 H       1  UNL1        0.0626
     25 H           3.9271    2.3685   -0.6296 H       1  UNL1        0.0832
     26 H           6.2371    1.2954   -0.3632 H       1  UNL1        0.0648
     27 H           6.2918   -1.0950    0.3568 H       1  UNL1        0.0831
@<TRIPOS>BOND
     1     1     2    1
     2     2     3    1
     3     3     4   ar
     4     4     5   ar
     5     3     6   ar
     6     6     7   ar
     7     7     8   ar
     8     8     9    1
     9     9    10   ar
    10    10    11   ar
    11    11    12   ar
    12    12    13   ar
    13    13    14   ar
    14    14    15   ar
    15    15    16   ar
    16    16    17   ar
    17     8     5   ar
    18    17     9   ar
    19    16    11   ar
    20     1    18    1
    21     1    19    1
    22     1    20    1
    23     4    21    1
    24     5    22    1
    25     6    23    1
    26     7    24    1
    27    12    25    1
    28    13    26    1
    29    14    27    1
