@<TRIPOS>MOLECULE
*****
 48 55 0 0 0
SMALL
GASTEIGER

@<TRIPOS>ATOM
      1 SI          5.0946    2.1581    2.2504 Si      1  UNL1        0.0000
      2 C           6.7078    1.5608    1.4457 C.2     1  UNL1        0.0000
      3 C           6.5132    0.6349    0.4871 C.2     1  UNL1        0.0000
      4 C           5.1015    0.3180    0.3105 C.ar    1  UNL1        0.0000
      5 C           4.1690    0.9947    1.1310 C.ar    1  UNL1        0.0000
      6 C           2.7663    0.8036    1.0390 C.ar    1  UNL1        0.0000
      7 S           1.4992    1.6397    1.8373 S.2     1  UNL1        0.0000
      8 C           0.2658    0.7349    1.0458 C.ar    1  UNL1        0.0000
      9 C          -1.1119    0.9927    1.1502 C.ar    1  UNL1        0.0000
     10 C          -2.0400    0.1449    0.5311 C.ar    1  UNL1        0.0000
     11 C          -3.4551    0.4993    0.6320 C.ar    1  UNL1        0.0000
     12 C          -4.2665    0.2026    1.7583 C.ar    1  UNL1        0.0000
     13 C          -5.6520    0.5512    1.8668 C.ar    1  UNL1        0.0000
     14 C          -6.3732    1.2350    0.8651 C.ar    1  UNL1        0.0000
     15 C          -5.5746    1.5299   -0.2397 C.ar    1  UNL1        0.0000
     16 C          -6.0564    2.1937   -1.3406 C.ar    1  UNL1        0.0000
     17 S          -4.8302    2.4045   -2.5267 S.2     1  UNL1        0.0000
     18 C          -3.6523    1.6053   -1.5611 C.ar    1  UNL1        0.0000
     19 C          -4.1788    1.1841   -0.3615 C.ar    1  UNL1        0.0000
     20 C          -1.5883   -1.0368   -0.0949 C.ar    1  UNL1        0.0000
     21 C          -2.4821   -1.9944   -0.6325 C.ar    1  UNL1        0.0000
     22 C          -2.0383   -3.2100   -1.1519 C.ar    1  UNL1        0.0000
     23 C          -0.6883   -3.5149   -1.1207 C.ar    1  UNL1        0.0000
     24 C           0.2195   -2.5822   -0.6189 C.ar    1  UNL1        0.0000
     25 C          -0.1908   -1.3086   -0.1621 C.ar    1  UNL1        0.0000
     26 C           0.7709   -0.3336    0.2967 C.ar    1  UNL1        0.0000
     27 C           2.1905   -0.1383    0.1803 C.ar    1  UNL1        0.0000
     28 C           3.1138   -0.7635   -0.7528 C.ar    1  UNL1        0.0000
     29 C           2.9266   -1.5112   -1.8768 C.ar    1  UNL1        0.0000
     30 O           4.1549   -1.8160   -2.4059 O.2     1  UNL1        0.0000
     31 C           5.1010   -1.2006   -1.6291 C.ar    1  UNL1        0.0000
     32 C           4.4932   -0.5038   -0.6136 C.ar    1  UNL1        0.0000
     33 H           4.8502    3.5918    1.9548 H       1  UNL1        0.0000
     34 H           5.0391    1.7750    3.6831 H       1  UNL1        0.0000
     35 H           7.6553    1.9657    1.7665 H       1  UNL1        0.0000
     36 H           7.2975    0.1717   -0.0943 H       1  UNL1        0.0000
     37 H          -1.4568    1.8632    1.7059 H       1  UNL1        0.0000
     38 H          -3.8133   -0.3286    2.5973 H       1  UNL1        0.0000
     39 H          -6.1778    0.2696    2.7801 H       1  UNL1        0.0000
     40 H          -7.4198    1.4895    0.9667 H       1  UNL1        0.0000
     41 H          -7.0533    2.5699   -1.5246 H       1  UNL1        0.0000
     42 H          -2.6447    1.4932   -1.9381 H       1  UNL1        0.0000
     43 H          -3.5560   -1.8139   -0.6295 H       1  UNL1        0.0000
     44 H          -2.7541   -3.9278   -1.5437 H       1  UNL1        0.0000
     45 H          -0.3375   -4.4819   -1.4720 H       1  UNL1        0.0000
     46 H           1.2559   -2.8944   -0.5360 H       1  UNL1        0.0000
     47 H           2.0839   -1.8821   -2.4410 H       1  UNL1        0.0000
     48 H           6.1224   -1.3346   -1.9563 H       1  UNL1        0.0000
@<TRIPOS>BOND
     1     1     2    1
     2     2     3    2
     3     3     4    1
     4     4     5   ar
     5     5     6   ar
     6     6     7   ar
     7     7     8   ar
     8     8     9   ar
     9     9    10   ar
    10    10    11    1
    11    11    12   ar
    12    12    13   ar
    13    13    14   ar
    14    14    15   ar
    15    15    16   ar
    16    16    17   ar
    17    17    18   ar
    18    18    19   ar
    19    10    20   ar
    20    20    21   ar
    21    21    22   ar
    22    22    23   ar
    23    23    24   ar
    24    24    25   ar
    25    25    26   ar
    26    26    27   ar
    27    27    28   ar
    28    28    29   ar
    29    29    30   ar
    30    30    31   ar
    31    31    32   ar
    32     5     1    1
    33    27     6   ar
    34    32    28   ar
    35    32     4   ar
    36    26     8   ar
    37    19    11   ar
    38    25    20   ar
    39    19    15   ar
    40     1    33    1
    41     1    34    1
    42     2    35    1
    43     3    36    1
    44     9    37    1
    45    12    38    1
    46    13    39    1
    47    14    40    1
    48    16    41    1
    49    18    42    1
    50    21    43    1
    51    22    44    1
    52    23    45    1
    53    24    46    1
    54    29    47    1
    55    31    48    1
