@<TRIPOS>MOLECULE
*****
 36 38 0 0 0
SMALL
GASTEIGER

@<TRIPOS>ATOM
      1 C           7.4298    0.3611   -0.5631 C.3     1  UNL1        0.0788
      2 O           6.2848    1.1657   -0.8153 O.3     1  UNL1       -0.4951
      3 C           5.0673    0.6216   -0.5119 C.ar    1  UNL1        0.1202
      4 C           4.8458   -0.6489    0.0216 C.ar    1  UNL1       -0.0179
      5 C           3.5418   -1.0855    0.2869 C.ar    1  UNL1       -0.0311
      6 C           3.9751    1.4523   -0.7782 C.ar    1  UNL1       -0.0179
      7 C           2.6701    1.0256   -0.5169 C.ar    1  UNL1       -0.0311
      8 C           2.4495   -0.2491    0.0183 C.ar    1  UNL1        0.0864
      9 N           1.1277   -0.6920    0.2873 N.ar    1  UNL1       -0.1497
     10 N           0.0427    0.0867    0.0417 N.ar    1  UNL1       -0.1471
     11 C          -0.9869   -0.6854    0.4257 C.ar    1  UNL1        0.1130
     12 C          -0.4601   -1.9100    0.8905 C.ar    1  UNL1        0.0776
     13 N           0.8706   -1.9210    0.8062 N.ar    1  UNL1       -0.1549
     14 C          -2.3797   -0.2428    0.3380 C.ar    1  UNL1        0.0039
     15 C          -3.4363   -1.0698    0.7462 C.ar    1  UNL1       -0.0490
     16 C          -4.7678   -0.6364    0.6581 C.ar    1  UNL1       -0.0193
     17 C          -5.0639    0.6312    0.1603 C.ar    1  UNL1        0.1201
     18 O          -6.3113    1.1724    0.0226 O.3     1  UNL1       -0.4951
     19 C          -7.4117    0.3667    0.4250 C.3     1  UNL1        0.0788
     20 C          -4.0187    1.4598   -0.2478 C.ar    1  UNL1       -0.0193
     21 C          -2.6906    1.0297   -0.1609 C.ar    1  UNL1       -0.0490
     22 H           8.3134    0.9358   -0.8568 H       1  UNL1        0.0660
     23 H           7.5225    0.1295    0.5031 H       1  UNL1        0.0660
     24 H           7.4111   -0.5523   -1.1668 H       1  UNL1        0.0660
     25 H           5.6632   -1.3268    0.2439 H       1  UNL1        0.0655
     26 H           3.3953   -2.0807    0.7030 H       1  UNL1        0.0640
     27 H           4.1425    2.4434   -1.1940 H       1  UNL1        0.0655
     28 H           1.8422    1.6969   -0.7357 H       1  UNL1        0.0640
     29 H          -0.9719   -2.7787    1.2794 H       1  UNL1        0.0870
     30 H          -3.2521   -2.0655    1.1405 H       1  UNL1        0.0625
     31 H          -5.5470   -1.3158    0.9876 H       1  UNL1        0.0654
     32 H          -8.3272    0.9405    0.2519 H       1  UNL1        0.0660
     33 H          -7.4725   -0.5468   -0.1756 H       1  UNL1        0.0660
     34 H          -7.3610    0.1350    1.4941 H       1  UNL1        0.0660
     35 H          -4.2365    2.4512   -0.6381 H       1  UNL1        0.0654
     36 H          -1.9002    1.7027   -0.4884 H       1  UNL1        0.0625
@<TRIPOS>BOND
     1     1     2    1
     2     2     3    1
     3     3     4   ar
     4     4     5   ar
     5     3     6   ar
     6     6     7   ar
     7     7     8   ar
     8     8     9    1
     9     9    10   ar
    10    10    11   ar
    11    11    12   ar
    12    12    13   ar
    13    11    14    1
    14    14    15   ar
    15    15    16   ar
    16    16    17   ar
    17    17    18    1
    18    18    19    1
    19    17    20   ar
    20    20    21   ar
    21     8     5   ar
    22    13     9   ar
    23    21    14   ar
    24     1    22    1
    25     1    23    1
    26     1    24    1
    27     4    25    1
    28     5    26    1
    29     6    27    1
    30     7    28    1
    31    12    29    1
    32    15    30    1
    33    16    31    1
    34    19    32    1
    35    19    33    1
    36    19    34    1
    37    20    35    1
    38    21    36    1
