@<TRIPOS>MOLECULE
*****
 32 34 0 0 0
SMALL
GASTEIGER

@<TRIPOS>ATOM
      1 C          -6.1856    0.9193    0.1724 C.3     1  UNL1        0.0788
      2 O          -5.5988   -0.3188   -0.2083 O.3     1  UNL1       -0.4951
      3 C          -4.2328   -0.3837   -0.2026 C.ar    1  UNL1        0.1202
      4 C          -3.7065   -1.6211   -0.5843 C.ar    1  UNL1       -0.0179
      5 C          -2.3252   -1.8306   -0.6241 C.ar    1  UNL1       -0.0311
      6 C          -3.3631    0.6521    0.1420 C.ar    1  UNL1       -0.0179
      7 C          -1.9775    0.4519    0.1052 C.ar    1  UNL1       -0.0311
      8 C          -1.4541   -0.7906   -0.2782 C.ar    1  UNL1        0.0864
      9 N          -0.0493   -0.9930   -0.3153 N.ar    1  UNL1       -0.1497
     10 N           0.8282   -0.0095    0.0129 N.ar    1  UNL1       -0.1471
     11 C           2.0258   -0.5960   -0.1498 C.ar    1  UNL1        0.1130
     12 C           1.8037   -1.9241   -0.5745 C.ar    1  UNL1        0.0776
     13 N           0.4995   -2.1803   -0.6807 N.ar    1  UNL1       -0.1549
     14 C           3.2878    0.1047    0.0962 C.ar    1  UNL1        0.0037
     15 C           3.2856    1.4434    0.5200 C.ar    1  UNL1       -0.0525
     16 C           4.4830    2.1235    0.7582 C.ar    1  UNL1       -0.0611
     17 C           5.7008    1.4741    0.5760 C.ar    1  UNL1       -0.0617
     18 C           5.7221    0.1463    0.1560 C.ar    1  UNL1       -0.0611
     19 C           4.5239   -0.5351   -0.0827 C.ar    1  UNL1       -0.0525
     20 H          -5.9313    1.1753    1.2063 H       1  UNL1        0.0660
     21 H          -5.8983    1.7207   -0.5163 H       1  UNL1        0.0660
     22 H          -7.2724    0.8056    0.1155 H       1  UNL1        0.0660
     23 H          -4.3801   -2.4315   -0.8538 H       1  UNL1        0.0655
     24 H          -1.9482   -2.8057   -0.9256 H       1  UNL1        0.0640
     25 H          -3.7272    1.6285    0.4441 H       1  UNL1        0.0655
     26 H          -1.3201    1.2755    0.3785 H       1  UNL1        0.0640
     27 H           2.5158   -2.7028   -0.8074 H       1  UNL1        0.0870
     28 H           2.3449    1.9708    0.6689 H       1  UNL1        0.0624
     29 H           4.4608    3.1597    1.0859 H       1  UNL1        0.0618
     30 H           6.6325    2.0026    0.7612 H       1  UNL1        0.0618
     31 H           6.6730   -0.3613    0.0136 H       1  UNL1        0.0618
     32 H           4.5830   -1.5697   -0.4090 H       1  UNL1        0.0624
@<TRIPOS>BOND
     1     1     2    1
     2     2     3    1
     3     3     4   ar
     4     4     5   ar
     5     3     6   ar
     6     6     7   ar
     7     7     8   ar
     8     8     9    1
     9     9    10   ar
    10    10    11   ar
    11    11    12   ar
    12    12    13   ar
    13    11    14    1
    14    14    15   ar
    15    15    16   ar
    16    16    17   ar
    17    17    18   ar
    18    18    19   ar
    19     8     5   ar
    20    13     9   ar
    21    19    14   ar
    22     1    20    1
    23     1    21    1
    24     1    22    1
    25     4    23    1
    26     5    24    1
    27     6    25    1
    28     7    26    1
    29    12    27    1
    30    15    28    1
    31    16    29    1
    32    17    30    1
    33    18    31    1
    34    19    32    1
