@<TRIPOS>MOLECULE
*****
 32 34 0 0 0
SMALL
GASTEIGER

@<TRIPOS>ATOM
      1 C           6.0589    1.5519   -0.1270 C.3     1  UNL1        0.0788
      2 O           5.5997    0.2638    0.2629 O.3     1  UNL1       -0.4951
      3 C           4.2478    0.0580    0.2471 C.ar    1  UNL1        0.1202
      4 C           3.2789    0.9948   -0.1160 C.ar    1  UNL1       -0.0179
      5 C           1.9211    0.6528   -0.0880 C.ar    1  UNL1       -0.0311
      6 C           3.8487   -1.2232    0.6384 C.ar    1  UNL1       -0.0179
      7 C           2.4960   -1.5739    0.6696 C.ar    1  UNL1       -0.0311
      8 C           1.5254   -0.6332    0.3051 C.ar    1  UNL1        0.0864
      9 N           0.1487   -0.9793    0.3333 N.ar    1  UNL1       -0.1497
     10 N          -0.2778   -2.2131    0.7075 N.ar    1  UNL1       -0.1549
     11 C          -1.6005   -2.0942    0.5882 C.ar    1  UNL1        0.0776
     12 C          -1.9547   -0.8006    0.1469 C.ar    1  UNL1        0.1130
     13 C          -3.2800   -0.2367   -0.1169 C.ar    1  UNL1        0.0037
     14 C          -3.4123    1.0907   -0.5554 C.ar    1  UNL1       -0.0525
     15 C          -4.6713    1.6409   -0.8107 C.ar    1  UNL1       -0.0611
     16 C          -5.8171    0.8709   -0.6310 C.ar    1  UNL1       -0.0617
     17 C          -5.7049   -0.4476   -0.1966 C.ar    1  UNL1       -0.0611
     18 C          -4.4450   -0.9991    0.0592 C.ar    1  UNL1       -0.0525
     19 N          -0.8227   -0.0952   -0.0128 N.ar    1  UNL1       -0.1471
     20 H           5.7889    1.7696   -1.1657 H       1  UNL1        0.0660
     21 H           5.6842    2.3264    0.5503 H       1  UNL1        0.0660
     22 H           7.1511    1.5517   -0.0603 H       1  UNL1        0.0660
     23 H           3.5429    2.0004   -0.4261 H       1  UNL1        0.0655
     24 H           1.1847    1.4011   -0.3757 H       1  UNL1        0.0640
     25 H           4.5999   -1.9568    0.9223 H       1  UNL1        0.0655
     26 H           2.2190   -2.5796    0.9790 H       1  UNL1        0.0640
     27 H          -2.2304   -2.9399    0.8241 H       1  UNL1        0.0870
     28 H          -2.5298    1.7109   -0.7027 H       1  UNL1        0.0624
     29 H          -4.7533    2.6704   -1.1496 H       1  UNL1        0.0618
     30 H          -6.7967    1.2984   -0.8294 H       1  UNL1        0.0618
     31 H          -6.5996   -1.0494   -0.0561 H       1  UNL1        0.0618
     32 H          -4.3998   -2.0308    0.3965 H       1  UNL1        0.0624
@<TRIPOS>BOND
     1     1     2    1
     2     2     3    1
     3     3     4   ar
     4     4     5   ar
     5     3     6   ar
     6     6     7   ar
     7     7     8   ar
     8     8     9    1
     9     9    10   ar
    10    10    11   ar
    11    11    12   ar
    12    12    13    1
    13    13    14   ar
    14    14    15   ar
    15    15    16   ar
    16    16    17   ar
    17    17    18   ar
    18    12    19   ar
    19     8     5   ar
    20    19     9   ar
    21    18    13   ar
    22     1    20    1
    23     1    21    1
    24     1    22    1
    25     4    23    1
    26     5    24    1
    27     6    25    1
    28     7    26    1
    29    11    27    1
    30    14    28    1
    31    15    29    1
    32    16    30    1
    33    17    31    1
    34    18    32    1
