@<TRIPOS>MOLECULE
*****
 35 38 0 0 0
SMALL
GASTEIGER

@<TRIPOS>ATOM
      1 C          -2.7459   -1.6191    2.3499 C.3     1  UNL1        0.0791
      2 O          -2.8170   -1.3365    0.9515 O.3     1  UNL1       -0.4885
      3 C          -1.7621   -0.5255    0.5879 C.ar    1  UNL1        0.2042
      4 C          -0.5736   -1.1102    0.1083 C.ar    1  UNL1        0.1749
      5 O          -0.3453   -2.4502   -0.0243 O.3     1  UNL1       -0.4907
      6 C          -1.3856   -3.1496   -0.7053 C.3     1  UNL1        0.0790
      7 C           0.4645   -0.2531   -0.1913 C.ar    1  UNL1        0.0550
      8 C           0.2990    1.1790   -0.0718 C.ar    1  UNL1        0.0341
      9 C           1.5447    1.8047   -0.4695 C.ar    1  UNL1        0.1465
     10 N           2.1514    2.9559   -0.6262 N.ar    1  UNL1       -0.2349
     11 C           3.4421    2.5950   -1.0820 C.ar    1  UNL1        0.0538
     12 C           3.5827    1.2201   -1.1903 C.ar    1  UNL1        0.0666
     13 N           2.3677    0.7910   -0.7955 N.ar    1  UNL1       -0.2920
     14 C           1.8485   -0.4746   -0.6743 C.ar    1  UNL1        0.0600
     15 C           2.6739   -1.4830   -0.9987 C.ar    1  UNL1       -0.0370
     16 C           4.0400   -1.1168   -1.4487 C.ar    1  UNL1       -0.0578
     17 C           4.4762    0.1704   -1.5406 C.ar    1  UNL1       -0.0362
     18 C          -0.8810    1.7533    0.3507 C.ar    1  UNL1       -0.0048
     19 C          -1.9308    0.8902    0.6839 C.ar    1  UNL1        0.1659
     20 O          -3.1612    1.3102    1.1312 O.3     1  UNL1       -0.4913
     21 C          -3.4095    2.7101    1.1427 C.3     1  UNL1        0.0790
     22 H          -2.8472   -0.7085    2.9501 H       1  UNL1        0.0660
     23 H          -1.8151   -2.1390    2.6026 H       1  UNL1        0.0660
     24 H          -3.5803   -2.2818    2.5986 H       1  UNL1        0.0660
     25 H          -1.8884   -2.5329   -1.4591 H       1  UNL1        0.0660
     26 H          -2.1047   -3.5530    0.0132 H       1  UNL1        0.0660
     27 H          -0.9282   -3.9982   -1.2236 H       1  UNL1        0.0660
     28 H           4.1764    3.3604   -1.2984 H       1  UNL1        0.0851
     29 H           2.3841   -2.5253   -0.9418 H       1  UNL1        0.0638
     30 H           4.7013   -1.9389   -1.7096 H       1  UNL1        0.0619
     31 H           5.4826    0.4025   -1.8731 H       1  UNL1        0.0639
     32 H          -0.9503    2.8320    0.4172 H       1  UNL1        0.0663
     33 H          -2.7555    3.2191    1.8581 H       1  UNL1        0.0660
     34 H          -3.3113    3.1389    0.1399 H       1  UNL1        0.0660
     35 H          -4.4423    2.8632    1.4701 H       1  UNL1        0.0660
@<TRIPOS>BOND
     1     1     2    1
     2     2     3    1
     3     3     4   ar
     4     4     5    1
     5     5     6    1
     6     4     7   ar
     7     7     8   ar
     8     8     9   ar
     9     9    10   ar
    10    10    11   ar
    11    11    12   ar
    12    12    13   ar
    13    13    14   ar
    14    14    15   ar
    15    15    16   ar
    16    16    17   ar
    17     8    18   ar
    18    18    19   ar
    19    19    20    1
    20    20    21    1
    21    19     3   ar
    22    14     7   ar
    23    13     9   ar
    24    17    12   ar
    25     1    22    1
    26     1    23    1
    27     1    24    1
    28     6    25    1
    29     6    26    1
    30     6    27    1
    31    11    28    1
    32    15    29    1
    33    16    30    1
    34    17    31    1
    35    18    32    1
    36    21    33    1
    37    21    34    1
    38    21    35    1
