@<TRIPOS>MOLECULE
*****
 40 44 0 0 0
SMALL
GASTEIGER

@<TRIPOS>ATOM
      1 C          -3.9010    3.2762    0.2693 C.3     1  UNL1        0.0789
      2 O          -3.3249    2.6633   -0.8857 O.3     1  UNL1       -0.4933
      3 C          -2.9546    1.3569   -0.5890 C.ar    1  UNL1        0.1427
      4 C          -1.6495    1.0842   -0.1518 C.ar    1  UNL1        0.0657
      5 C          -1.2513   -0.2201    0.1289 C.ar    1  UNL1        0.0361
      6 C           0.1065   -0.2567    0.6034 C.ar    1  UNL1       -0.0350
      7 C           0.7192    0.9772    0.6377 C.ar    1  UNL1        0.0280
      8 C           2.0777    1.2596    1.0293 C.ar    1  UNL1        0.0388
      9 C           3.2105    0.5175    0.8132 C.ar    1  UNL1        0.0646
     10 C           4.3812    1.0883    1.3475 C.ar    1  UNL1        0.0570
     11 C           5.4989    0.2338    1.0471 C.2     1  UNL1        0.2541
     12 N           4.9449   -0.8269    0.3521 N.am    1  UNL1       -0.2372
     13 C           5.7203   -1.9180   -0.1786 C.3     1  UNL1        0.0115
     14 C           3.5760   -0.7147    0.1577 C.2     1  UNL1        0.2547
     15 O           2.8374   -1.4798   -0.4393 O.2     1  UNL1       -0.2695
     16 O           6.6633    0.4331    1.3451 O.2     1  UNL1       -0.2695
     17 C           4.1814    2.2732    1.9907 C.ar    1  UNL1       -0.0108
     18 S           2.5080    2.6850    1.9312 S.2     1  UNL1       -0.0946
     19 S          -0.3570    2.1950    0.1115 S.2     1  UNL1       -0.0839
     20 C          -2.1815   -1.2578   -0.0781 C.ar    1  UNL1        0.1427
     21 O          -1.8120   -2.5641    0.2196 O.3     1  UNL1       -0.4933
     22 C          -1.1865   -3.1607   -0.9188 C.3     1  UNL1        0.0789
     23 C          -3.4853   -0.9870   -0.5193 C.ar    1  UNL1        0.0651
     24 C          -3.8859    0.3199   -0.7985 C.ar    1  UNL1        0.0355
     25 C          -5.2433    0.3570   -1.2762 C.ar    1  UNL1       -0.0433
     26 C          -5.8341   -0.8822   -1.3187 C.ar    1  UNL1       -0.0230
     27 S          -4.7738   -2.1061   -0.7941 S.2     1  UNL1       -0.0929
     28 H          -4.1409    4.3122    0.0122 H       1  UNL1        0.0660
     29 H          -4.8309    2.7764    0.5606 H       1  UNL1        0.0660
     30 H          -3.2003    3.2903    1.1109 H       1  UNL1        0.0660
     31 H           0.5990   -1.1773    0.8945 H       1  UNL1        0.0636
     32 H           5.8803   -1.7387   -1.2459 H       1  UNL1        0.0434
     33 H           5.1678   -2.8546   -0.0612 H       1  UNL1        0.0434
     34 H           6.6879   -1.9869    0.3253 H       1  UNL1        0.0434
     35 H           4.9013    2.9135    2.4830 H       1  UNL1        0.0701
     36 H          -0.2404   -2.6642   -1.1584 H       1  UNL1        0.0660
     37 H          -0.9666   -4.2031   -0.6698 H       1  UNL1        0.0660
     38 H          -1.8485   -3.1539   -1.7914 H       1  UNL1        0.0660
     39 H          -5.7533    1.2666   -1.5702 H       1  UNL1        0.0630
     40 H          -6.8400   -1.1264   -1.6319 H       1  UNL1        0.0694
@<TRIPOS>BOND
     1     1     2    1
     2     2     3    1
     3     3     4   ar
     4     4     5   ar
     5     5     6   ar
     6     6     7   ar
     7     7     8    1
     8     8     9   ar
     9     9    10   ar
    10    10    11    1
    11    11    12   am
    12    12    13    1
    13    12    14   am
    14    14    15    2
    15    11    16    2
    16    10    17   ar
    17    17    18   ar
    18     7    19   ar
    19     5    20   ar
    20    20    21    1
    21    21    22    1
    22    20    23   ar
    23    23    24   ar
    24    24    25   ar
    25    25    26   ar
    26    26    27   ar
    27    24     3   ar
    28    19     4   ar
    29    18     8   ar
    30    14     9    1
    31    27    23   ar
    32     1    28    1
    33     1    29    1
    34     1    30    1
    35     6    31    1
    36    13    32    1
    37    13    33    1
    38    13    34    1
    39    17    35    1
    40    22    36    1
    41    22    37    1
    42    22    38    1
    43    25    39    1
    44    26    40    1
