@<TRIPOS>MOLECULE
*****
 41 45 0 0 0
SMALL
GASTEIGER

@<TRIPOS>ATOM
      1 C          -2.6805    1.0195    2.8583 C.3     1  UNL1        0.0789
      2 O          -2.1450    1.7930    1.7831 O.3     1  UNL1       -0.4933
      3 C          -2.3368    1.1213    0.5816 C.ar    1  UNL1        0.1427
      4 C          -1.3201    0.2975    0.0757 C.ar    1  UNL1        0.0657
      5 C          -1.4810   -0.3700   -1.1358 C.ar    1  UNL1        0.0361
      6 C          -0.3120   -1.1441   -1.4607 C.ar    1  UNL1       -0.0350
      7 C           0.6924   -1.0544   -0.5202 C.ar    1  UNL1        0.0279
      8 C           1.9733   -1.7107   -0.5446 C.ar    1  UNL1        0.0342
      9 C           3.2107   -1.2746   -0.1902 C.ar    1  UNL1        0.0051
     10 C           4.2627   -2.1783   -0.3235 C.ar    1  UNL1        0.0276
     11 S           5.9037   -1.6182    0.1384 S.2     1  UNL1       -0.0848
     12 C           5.1311   -0.0749    0.5127 C.ar    1  UNL1        0.0554
     13 C           5.9935    1.0023    1.0057 C.2     1  UNL1        0.1667
     14 C           5.3239    2.3198    1.3223 C.3     1  UNL1       -0.0009
     15 O           7.2094    0.8925    1.1724 O.2     1  UNL1       -0.2918
     16 C           3.7414   -0.0428    0.2904 C.ar    1  UNL1       -0.0353
     17 C           3.8373   -3.3813   -0.8065 C.ar    1  UNL1       -0.0094
     18 S           2.1407   -3.3463   -1.0891 S.2     1  UNL1       -0.0944
     19 S           0.2197   -0.0449    0.7718 S.2     1  UNL1       -0.0839
     20 C          -2.6937   -0.1976   -1.8320 C.ar    1  UNL1        0.1427
     21 O          -2.8651   -0.8429   -3.0505 O.3     1  UNL1       -0.4933
     22 C          -3.4646   -2.1222   -2.8395 C.3     1  UNL1        0.0789
     23 C          -3.6811    0.6819   -1.3623 C.ar    1  UNL1        0.0651
     24 C          -3.5171    1.3561   -0.1518 C.ar    1  UNL1        0.0355
     25 C          -4.6420    2.2103    0.1250 C.ar    1  UNL1       -0.0433
     26 C          -5.6090    2.1610   -0.8492 C.ar    1  UNL1       -0.0230
     27 S          -5.1844    1.0968   -2.1078 S.2     1  UNL1       -0.0929
     28 H          -2.2060    0.0343    2.9210 H       1  UNL1        0.0660
     29 H          -2.4729    1.5545    3.7898 H       1  UNL1        0.0660
     30 H          -3.7662    0.9108    2.7657 H       1  UNL1        0.0660
     31 H          -0.2273   -1.7293   -2.3694 H       1  UNL1        0.0636
     32 H           4.5767    2.1831    2.1086 H       1  UNL1        0.0309
     33 H           6.0727    3.0328    1.6809 H       1  UNL1        0.0309
     34 H           4.8609    2.7327    0.4220 H       1  UNL1        0.0309
     35 H           3.1425    0.8423    0.4677 H       1  UNL1        0.0636
     36 H           4.4419   -4.2561   -1.0041 H       1  UNL1        0.0705
     37 H          -4.4393   -2.0344   -2.3479 H       1  UNL1        0.0660
     38 H          -3.6204   -2.5834   -3.8193 H       1  UNL1        0.0660
     39 H          -2.8061   -2.7768   -2.2586 H       1  UNL1        0.0660
     40 H          -4.7206    2.8366    1.0056 H       1  UNL1        0.0630
     41 H          -6.5435    2.7042   -0.8834 H       1  UNL1        0.0694
@<TRIPOS>BOND
     1     1     2    1
     2     2     3    1
     3     3     4   ar
     4     4     5   ar
     5     5     6   ar
     6     6     7   ar
     7     7     8    1
     8     8     9   ar
     9     9    10   ar
    10    10    11   ar
    11    11    12   ar
    12    12    13    1
    13    13    14    1
    14    13    15    2
    15    12    16   ar
    16    10    17   ar
    17    17    18   ar
    18     7    19   ar
    19     5    20   ar
    20    20    21    1
    21    21    22    1
    22    20    23   ar
    23    23    24   ar
    24    24    25   ar
    25    25    26   ar
    26    26    27   ar
    27    24     3   ar
    28    19     4   ar
    29    18     8   ar
    30    16     9   ar
    31    27    23   ar
    32     1    28    1
    33     1    29    1
    34     1    30    1
    35     6    31    1
    36    14    32    1
    37    14    33    1
    38    14    34    1
    39    16    35    1
    40    17    36    1
    41    22    37    1
    42    22    38    1
    43    22    39    1
    44    25    40    1
    45    26    41    1
