@<TRIPOS>MOLECULE
*****
 41 45 0 0 0
SMALL
GASTEIGER

@<TRIPOS>ATOM
      1 C          -4.3507   -2.9418   -0.1247 C.3     1  UNL1        0.0789
      2 O          -3.9244   -1.8495   -0.9414 O.3     1  UNL1       -0.4933
      3 C          -3.2423   -0.9200   -0.1655 C.ar    1  UNL1        0.1427
      4 C          -1.8461   -0.9980   -0.0510 C.ar    1  UNL1        0.0657
      5 C          -1.1402   -0.0617    0.7005 C.ar    1  UNL1        0.0361
      6 C           0.2665   -0.3637    0.7166 C.ar    1  UNL1       -0.0350
      7 C           0.6050   -1.4709   -0.0303 C.ar    1  UNL1        0.0280
      8 C           1.9247   -2.0084   -0.2307 C.ar    1  UNL1        0.0369
      9 C           3.1016   -1.3737   -0.4697 C.ar    1  UNL1        0.0404
     10 C           4.2368   -2.1718   -0.5994 C.ar    1  UNL1        0.0305
     11 S           5.8016   -1.3469   -0.9236 S.2     1  UNL1       -0.0819
     12 C           4.8670    0.1554   -0.8974 C.ar    1  UNL1        0.0906
     13 C           5.5934    1.4014   -1.1272 C.2     1  UNL1        0.1694
     14 C           4.7947    2.6837   -1.1202 C.3     1  UNL1       -0.0008
     15 O           6.8090    1.4587   -1.3229 O.2     1  UNL1       -0.2917
     16 C           3.5021   -0.0275   -0.6557 C.ar    1  UNL1        0.1497
     17 F           2.6341    0.9951   -0.6083 F       1  UNL1       -0.2035
     18 C           3.9433   -3.4959   -0.4516 C.ar    1  UNL1       -0.0093
     19 S           2.2607   -3.7050   -0.1580 S.2     1  UNL1       -0.0943
     20 S          -0.7805   -2.1604   -0.7503 S.2     1  UNL1       -0.0839
     21 C          -1.8632    0.9848    1.3063 C.ar    1  UNL1        0.1427
     22 O          -1.1774    1.9149    2.0784 O.3     1  UNL1       -0.4933
     23 C          -0.7507    3.0039    1.2575 C.3     1  UNL1        0.0789
     24 C          -3.2594    1.0642    1.1924 C.ar    1  UNL1        0.0651
     25 C          -3.9672    0.1258    0.4405 C.ar    1  UNL1        0.0355
     26 C          -5.3748    0.4266    0.4248 C.ar    1  UNL1       -0.0433
     27 C          -5.6979    1.5347    1.1694 C.ar    1  UNL1       -0.0230
     28 S          -4.3240    2.2330    1.8916 S.2     1  UNL1       -0.0929
     29 H          -4.8437   -3.6711   -0.7743 H       1  UNL1        0.0660
     30 H          -3.5034   -3.4387    0.3596 H       1  UNL1        0.0660
     31 H          -5.0764   -2.6143    0.6273 H       1  UNL1        0.0660
     32 H           0.9890    0.2287    1.2658 H       1  UNL1        0.0636
     33 H           4.3256    2.8305   -0.1437 H       1  UNL1        0.0309
     34 H           4.0404    2.6627   -1.9112 H       1  UNL1        0.0309
     35 H           5.4626    3.5301   -1.3085 H       1  UNL1        0.0309
     36 H           4.6311   -4.3291   -0.5037 H       1  UNL1        0.0705
     37 H          -0.0223    2.6736    0.5093 H       1  UNL1        0.0660
     38 H          -0.2603    3.7370    1.9049 H       1  UNL1        0.0660
     39 H          -1.5971    3.4975    0.7683 H       1  UNL1        0.0660
     40 H          -6.1098   -0.1599   -0.1134 H       1  UNL1        0.0630
     41 H          -6.6775    1.9658    1.3250 H       1  UNL1        0.0694
@<TRIPOS>BOND
     1     1     2    1
     2     2     3    1
     3     3     4   ar
     4     4     5   ar
     5     5     6   ar
     6     6     7   ar
     7     7     8    1
     8     8     9   ar
     9     9    10   ar
    10    10    11   ar
    11    11    12   ar
    12    12    13    1
    13    13    14    1
    14    13    15    2
    15    12    16   ar
    16    16    17    1
    17    10    18   ar
    18    18    19   ar
    19     7    20   ar
    20     5    21   ar
    21    21    22    1
    22    22    23    1
    23    21    24   ar
    24    24    25   ar
    25    25    26   ar
    26    26    27   ar
    27    27    28   ar
    28    25     3   ar
    29    20     4   ar
    30    19     8   ar
    31    16     9   ar
    32    28    24   ar
    33     1    29    1
    34     1    30    1
    35     1    31    1
    36     6    32    1
    37    14    33    1
    38    14    34    1
    39    14    35    1
    40    18    36    1
    41    23    37    1
    42    23    38    1
    43    23    39    1
    44    26    40    1
    45    27    41    1
