@<TRIPOS>MOLECULE
*****
 41 44 0 0 0
SMALL
GASTEIGER

@<TRIPOS>ATOM
      1 C           7.5614   -1.3279    0.2885 C.3     1  UNL1        0.0788
      2 O           6.6776   -0.8281   -0.7070 O.3     1  UNL1       -0.4951
      3 C           5.3881   -0.5816   -0.3225 C.ar    1  UNL1        0.1207
      4 C           4.5602   -0.0918   -1.3369 C.ar    1  UNL1       -0.0122
      5 C           3.2094    0.2087   -1.0951 C.ar    1  UNL1       -0.0144
      6 C           2.3761    0.7056   -2.1078 C.ar    1  UNL1       -0.0534
      7 C           1.0343    0.9993   -1.8488 C.ar    1  UNL1       -0.0540
      8 C           2.6793    0.0103    0.1971 C.ar    1  UNL1       -0.0171
      9 C           3.5184   -0.4798    1.2099 C.ar    1  UNL1       -0.0506
     10 C           4.8621   -0.7742    0.9527 C.ar    1  UNL1       -0.0194
     11 C           1.3269    0.3098    0.4421 C.ar    1  UNL1       -0.0469
     12 C           0.4932    0.7917   -0.5767 C.ar    1  UNL1       -0.0244
     13 C          -0.9147    1.1384   -0.3399 C.2     1  UNL1       -0.0540
     14 C          -1.7350    0.4270    0.4495 C.2     1  UNL1       -0.0534
     15 C          -3.1476    0.7921    0.6465 C.ar    1  UNL1       -0.0144
     16 C          -3.4409    2.0255    1.2309 C.ar    1  UNL1       -0.0358
     17 C          -4.7644    2.3525    1.4401 C.ar    1  UNL1        0.0288
     18 N          -5.7961    1.5480    1.1163 N.ar    1  UNL1       -0.2549
     19 C          -5.5218    0.3582    0.5559 C.ar    1  UNL1        0.0715
     20 C          -6.5850   -0.4708    0.2225 C.ar    1  UNL1       -0.0357
     21 C          -6.3921   -1.7222   -0.3669 C.ar    1  UNL1       -0.0597
     22 C          -5.1049   -2.1635   -0.6356 C.ar    1  UNL1       -0.0611
     23 C          -4.0192   -1.3516   -0.3106 C.ar    1  UNL1       -0.0520
     24 C          -4.2052   -0.0825    0.2925 C.ar    1  UNL1        0.0075
     25 H           8.5418   -1.4705   -0.1761 H       1  UNL1        0.0660
     26 H           7.6819   -0.6096    1.1062 H       1  UNL1        0.0660
     27 H           7.2255   -2.3009    0.6622 H       1  UNL1        0.0660
     28 H           4.9827    0.0560   -2.3286 H       1  UNL1        0.0660
     29 H           2.7666    0.8697   -3.1099 H       1  UNL1        0.0624
     30 H           0.4149    1.3830   -2.6566 H       1  UNL1        0.0624
     31 H           3.1307   -0.6385    2.2140 H       1  UNL1        0.0625
     32 H           5.4661   -1.1511    1.7710 H       1  UNL1        0.0654
     33 H           0.9270    0.1736    1.4446 H       1  UNL1        0.0629
     34 H          -1.2840    2.0094   -0.8777 H       1  UNL1        0.0624
     35 H          -1.4047   -0.4737    0.9599 H       1  UNL1        0.0624
     36 H          -2.6584    2.7162    1.5265 H       1  UNL1        0.0639
     37 H          -5.0420    3.3003    1.8923 H       1  UNL1        0.0830
     38 H          -7.5973   -0.1295    0.4276 H       1  UNL1        0.0639
     39 H          -7.2490   -2.3428   -0.6149 H       1  UNL1        0.0618
     40 H          -4.9427   -3.1334   -1.0986 H       1  UNL1        0.0618
     41 H          -3.0192   -1.7138   -0.5387 H       1  UNL1        0.0624
@<TRIPOS>BOND
     1     1     2    1
     2     2     3    1
     3     3     4   ar
     4     4     5   ar
     5     5     6   ar
     6     6     7   ar
     7     5     8   ar
     8     8     9   ar
     9     9    10   ar
    10     8    11   ar
    11    11    12   ar
    12    12    13    1
    13    13    14    2
    14    14    15    1
    15    15    16   ar
    16    16    17   ar
    17    17    18   ar
    18    18    19   ar
    19    19    20   ar
    20    20    21   ar
    21    21    22   ar
    22    22    23   ar
    23    23    24   ar
    24    10     3   ar
    25    12     7   ar
    26    24    15   ar
    27    24    19   ar
    28     1    25    1
    29     1    26    1
    30     1    27    1
    31     4    28    1
    32     6    29    1
    33     7    30    1
    34     9    31    1
    35    10    32    1
    36    11    33    1
    37    13    34    1
    38    14    35    1
    39    16    36    1
    40    17    37    1
    41    20    38    1
    42    21    39    1
    43    22    40    1
    44    23    41    1
