@<TRIPOS>MOLECULE
*****
 41 44 0 0 0
SMALL
GASTEIGER

@<TRIPOS>ATOM
      1 C           7.8622   -0.6102    1.1016 C.3     1  UNL1        0.0788
      2 O           7.3720    0.2619    0.0913 O.3     1  UNL1       -0.4951
      3 C           6.0178    0.2899   -0.1001 C.ar    1  UNL1        0.1207
      4 C           5.0718   -0.4611    0.6001 C.ar    1  UNL1       -0.0122
      5 C           3.6991   -0.3436    0.3097 C.ar    1  UNL1       -0.0144
      6 C           2.7381   -1.0948    1.0029 C.ar    1  UNL1       -0.0534
      7 C           1.3777   -0.9687    0.7055 C.ar    1  UNL1       -0.0540
      8 C           3.2740    0.5448   -0.7025 C.ar    1  UNL1       -0.0171
      9 C           4.2328    1.2933   -1.3995 C.ar    1  UNL1       -0.0506
     10 C           5.5903    1.1647   -1.0985 C.ar    1  UNL1       -0.0194
     11 C           1.9023    0.6602   -0.9907 C.ar    1  UNL1       -0.0469
     12 C           0.9457   -0.0810   -0.2842 C.ar    1  UNL1       -0.0244
     13 C          -0.4724    0.0563   -0.6477 C.2     1  UNL1       -0.0526
     14 C          -1.4719    0.0542    0.2501 C.2     1  UNL1       -0.0357
     15 C          -2.9023    0.1749   -0.0570 C.ar    1  UNL1        0.0646
     16 N          -3.7155   -0.3632    0.8822 N.ar    1  UNL1       -0.2473
     17 C          -5.0467   -0.2873    0.7062 C.ar    1  UNL1        0.0716
     18 C          -5.8942   -0.8451    1.6543 C.ar    1  UNL1       -0.0357
     19 C          -7.2851   -0.7938    1.5198 C.ar    1  UNL1       -0.0597
     20 C          -7.8510   -0.1707    0.4134 C.ar    1  UNL1       -0.0611
     21 C          -7.0246    0.3983   -0.5532 C.ar    1  UNL1       -0.0526
     22 C          -5.6264    0.3434   -0.4131 C.ar    1  UNL1        0.0004
     23 C          -4.7676    0.9071   -1.3621 C.ar    1  UNL1       -0.0506
     24 C          -3.3899    0.8272   -1.1815 C.ar    1  UNL1       -0.0357
     25 H           8.9518   -0.5122    1.1278 H       1  UNL1        0.0660
     26 H           7.4789   -0.3274    2.0875 H       1  UNL1        0.0660
     27 H           7.6276   -1.6543    0.8696 H       1  UNL1        0.0660
     28 H           5.3772   -1.1499    1.3811 H       1  UNL1        0.0660
     29 H           3.0397   -1.7925    1.7811 H       1  UNL1        0.0624
     30 H           0.6637   -1.5816    1.2510 H       1  UNL1        0.0624
     31 H           3.9326    1.9847   -2.1832 H       1  UNL1        0.0625
     32 H           6.3212    1.7529   -1.6481 H       1  UNL1        0.0654
     33 H           1.5776    1.3459   -1.7710 H       1  UNL1        0.0629
     34 H          -0.6690    0.1640   -1.7106 H       1  UNL1        0.0624
     35 H          -1.2658   -0.0623    1.3115 H       1  UNL1        0.0639
     36 H          -5.4584   -1.3341    2.5224 H       1  UNL1        0.0639
     37 H          -7.9192   -1.2411    2.2809 H       1  UNL1        0.0618
     38 H          -8.9315   -0.1274    0.3035 H       1  UNL1        0.0618
     39 H          -7.4746    0.8848   -1.4154 H       1  UNL1        0.0624
     40 H          -5.1625    1.4130   -2.2391 H       1  UNL1        0.0625
     41 H          -2.7259    1.2807   -1.9080 H       1  UNL1        0.0639
@<TRIPOS>BOND
     1     1     2    1
     2     2     3    1
     3     3     4   ar
     4     4     5   ar
     5     5     6   ar
     6     6     7   ar
     7     5     8   ar
     8     8     9   ar
     9     9    10   ar
    10     8    11   ar
    11    11    12   ar
    12    12    13    1
    13    13    14    2
    14    14    15    1
    15    15    16   ar
    16    16    17   ar
    17    17    18   ar
    18    18    19   ar
    19    19    20   ar
    20    20    21   ar
    21    21    22   ar
    22    22    23   ar
    23    23    24   ar
    24    10     3   ar
    25    12     7   ar
    26    24    15   ar
    27    22    17   ar
    28     1    25    1
    29     1    26    1
    30     1    27    1
    31     4    28    1
    32     6    29    1
    33     7    30    1
    34     9    31    1
    35    10    32    1
    36    11    33    1
    37    13    34    1
    38    14    35    1
    39    18    36    1
    40    19    37    1
    41    20    38    1
    42    21    39    1
    43    23    40    1
    44    24    41    1
