@<TRIPOS>MOLECULE
*****
 37 41 0 0 0
SMALL
GASTEIGER

@<TRIPOS>ATOM
      1 C           4.9253    2.2014    0.3133 C.3     1  UNL1        0.0788
      2 O           4.9045    0.7809    0.3947 O.3     1  UNL1       -0.4951
      3 C           3.6823    0.1777    0.2956 C.ar    1  UNL1        0.1208
      4 C           2.4593    0.8185    0.1336 C.ar    1  UNL1       -0.0087
      5 C           1.2698    0.0717    0.0465 C.ar    1  UNL1        0.0290
      6 C          -0.0096    0.7569   -0.0932 C.ar    1  UNL1        0.1471
      7 N          -0.1923    2.0553   -0.2105 N.ar    1  UNL1       -0.2271
      8 C          -1.5456    2.2293   -0.2056 C.ar    1  UNL1        0.0900
      9 C          -2.2608    3.4369   -0.2629 C.ar    1  UNL1       -0.0342
     10 C          -3.6531    3.4100   -0.1718 C.ar    1  UNL1       -0.0596
     11 C          -4.3205    2.2009   -0.0082 C.ar    1  UNL1       -0.0597
     12 C          -3.6236    0.9856    0.0431 C.ar    1  UNL1       -0.0357
     13 C          -2.2234    1.0111   -0.0936 C.ar    1  UNL1        0.0739
     14 N          -1.2085    0.0571   -0.1207 N.ar    1  UNL1       -0.2915
     15 C          -1.2448   -1.3709   -0.1563 C.ar    1  UNL1        0.0563
     16 C          -0.0143   -2.0729   -0.0150 C.ar    1  UNL1        0.0067
     17 C          -0.0711   -3.4817   -0.0298 C.ar    1  UNL1       -0.0520
     18 C          -1.2752   -4.1685   -0.1998 C.ar    1  UNL1       -0.0611
     19 C          -2.4555   -3.4632   -0.3785 C.ar    1  UNL1       -0.0598
     20 C          -2.4418   -2.0694   -0.3657 C.ar    1  UNL1       -0.0372
     21 C           1.2755   -1.3357    0.1140 C.ar    1  UNL1       -0.0050
     22 C           2.5238   -1.9588    0.2836 C.ar    1  UNL1       -0.0498
     23 C           3.7058   -1.2122    0.3727 C.ar    1  UNL1       -0.0193
     24 H           4.3643    2.6522    1.1386 H       1  UNL1        0.0660
     25 H           4.5514    2.5470   -0.6561 H       1  UNL1        0.0660
     26 H           5.9666    2.5255    0.4029 H       1  UNL1        0.0660
     27 H           2.3894    1.9010    0.0759 H       1  UNL1        0.0661
     28 H          -1.7256    4.3756   -0.3584 H       1  UNL1        0.0639
     29 H          -4.2131    4.3410   -0.2072 H       1  UNL1        0.0618
     30 H          -5.4044    2.1981    0.0914 H       1  UNL1        0.0618
     31 H          -4.1834    0.0761    0.2168 H       1  UNL1        0.0639
     32 H           0.8244   -4.0864    0.0791 H       1  UNL1        0.0624
     33 H          -1.2828   -5.2558   -0.2118 H       1  UNL1        0.0618
     34 H          -3.3887   -3.9972   -0.5414 H       1  UNL1        0.0618
     35 H          -3.3799   -1.5736   -0.5685 H       1  UNL1        0.0638
     36 H           2.6194   -3.0378    0.3508 H       1  UNL1        0.0625
     37 H           4.6561   -1.7257    0.5023 H       1  UNL1        0.0654
@<TRIPOS>BOND
     1     1     2    1
     2     2     3    1
     3     3     4   ar
     4     4     5   ar
     5     5     6   ar
     6     6     7   ar
     7     7     8   ar
     8     8     9   ar
     9     9    10   ar
    10    10    11   ar
    11    11    12   ar
    12     8    13   ar
    13    13    14   ar
    14    14    15   ar
    15    15    16   ar
    16    16    17   ar
    17    17    18   ar
    18    18    19   ar
    19    19    20   ar
    20     5    21   ar
    21    21    22   ar
    22    22    23   ar
    23    23     3   ar
    24    14     6   ar
    25    13    12   ar
    26    20    15   ar
    27    21    16   ar
    28     1    24    1
    29     1    25    1
    30     1    26    1
    31     4    27    1
    32     9    28    1
    33    10    29    1
    34    11    30    1
    35    12    31    1
    36    17    32    1
    37    18    33    1
    38    19    34    1
    39    20    35    1
    40    22    36    1
    41    23    37    1
