@<TRIPOS>MOLECULE
*****
 37 43 0 0 0
SMALL
GASTEIGER

@<TRIPOS>ATOM
      1 SI         -4.4323   -1.1992    2.7300 Si      1  UNL1        0.0000
      2 C          -6.0636   -0.6507    1.9272 C.2     1  UNL1        0.0000
      3 C          -5.8952   -0.0253    0.7460 C.2     1  UNL1        0.0000
      4 C          -4.4890    0.0768    0.3726 C.ar    1  UNL1        0.0000
      5 C          -3.5351   -0.4770    1.2740 C.ar    1  UNL1        0.0000
      6 C          -2.1412   -0.4460    1.0340 C.ar    1  UNL1        0.0000
      7 S          -0.8088   -1.0404    1.9611 S.2     1  UNL1        0.0000
      8 C           0.3439   -0.4728    0.7579 C.ar    1  UNL1        0.0000
      9 C           1.7688   -0.5189    0.6564 C.ar    1  UNL1        0.0000
     10 C           2.2358    0.0737   -0.5031 C.ar    1  UNL1        0.0000
     11 S           0.9202    0.6820   -1.4576 S.2     1  UNL1        0.0000
     12 C          -0.2576    0.1433   -0.3049 C.ar    1  UNL1        0.0000
     13 C          -1.6507    0.1426   -0.1212 C.ar    1  UNL1        0.0000
     14 C          -2.5519    0.7199   -1.0730 C.ar    1  UNL1        0.0000
     15 C          -2.3937    1.3528   -2.2667 C.ar    1  UNL1        0.0000
     16 O          -3.6422    1.6914   -2.7308 O.2     1  UNL1        0.0000
     17 C          -4.5624    1.2584   -1.8077 C.ar    1  UNL1        0.0000
     18 C          -3.9242    0.6464   -0.7570 C.ar    1  UNL1        0.0000
     19 C           3.6110    0.2216   -0.9576 C.ar    1  UNL1        0.0000
     20 S           4.0354    1.0091   -2.4733 S.2     1  UNL1        0.0000
     21 C           5.7341    0.7816   -2.2744 C.ar    1  UNL1        0.0000
     22 C           5.9158    0.1392   -1.1072 C.ar    1  UNL1        0.0000
     23 C           6.9729   -0.3620   -0.3168 C.ar    1  UNL1        0.0000
     24 C           6.3872   -0.9366    0.8255 C.ar    1  UNL1        0.0000
     25 N           4.9974   -0.8257    0.8023 N.ar    1  UNL1        0.0000
     26 C           4.7813   -0.1716   -0.3821 C.ar    1  UNL1        0.0000
     27 H          -4.1891   -0.4710    4.0001 H       1  UNL1        0.0000
     28 H          -4.3451   -2.6786    2.8090 H       1  UNL1        0.0000
     29 H          -7.0028   -0.8504    2.4203 H       1  UNL1        0.0000
     30 H          -6.6954    0.3626    0.1319 H       1  UNL1        0.0000
     31 H           2.3697   -0.9761    1.4246 H       1  UNL1        0.0000
     32 H          -1.5698    1.6383   -2.9038 H       1  UNL1        0.0000
     33 H          -5.5935    1.4656   -2.0567 H       1  UNL1        0.0000
     34 H           6.4486    1.1265   -3.0076 H       1  UNL1        0.0000
     35 H           8.0338   -0.3243   -0.5260 H       1  UNL1        0.0000
     36 H           6.8580   -1.4251    1.6693 H       1  UNL1        0.0000
     37 H           4.3298   -1.1469    1.4855 H       1  UNL1        0.0000
@<TRIPOS>BOND
     1     1     2    1
     2     2     3    2
     3     3     4    1
     4     4     5   ar
     5     5     6   ar
     6     6     7   ar
     7     7     8   ar
     8     8     9   ar
     9     9    10   ar
    10    10    11   ar
    11    11    12   ar
    12    12    13   ar
    13    13    14   ar
    14    14    15   ar
    15    15    16   ar
    16    16    17   ar
    17    17    18   ar
    18    10    19    1
    19    19    20   ar
    20    20    21   ar
    21    21    22   ar
    22    22    23   ar
    23    23    24   ar
    24    24    25   ar
    25    25    26   ar
    26     5     1    1
    27    13     6   ar
    28    18    14   ar
    29    26    19   ar
    30    18     4   ar
    31    26    22   ar
    32    12     8   ar
    33     1    27    1
    34     1    28    1
    35     2    29    1
    36     3    30    1
    37     9    31    1
    38    15    32    1
    39    17    33    1
    40    21    34    1
    41    23    35    1
    42    24    36    1
    43    25    37    1
