@<TRIPOS>MOLECULE
*****
 28 30 0 0 0
SMALL
GASTEIGER

@<TRIPOS>ATOM
      1 C           5.1231    0.0307    0.0990 C.3     1  UNL1        0.0788
      2 O           4.2526   -0.9231    0.6942 O.3     1  UNL1       -0.4951
      3 C           2.9255   -0.8331    0.3787 C.ar    1  UNL1        0.1201
      4 C           2.3394    0.1316   -0.4404 C.ar    1  UNL1       -0.0193
      5 C           0.9590    0.1088   -0.6796 C.ar    1  UNL1       -0.0476
      6 C           0.1469   -0.8721   -0.0954 C.ar    1  UNL1        0.0198
      7 C           0.7449   -1.8485    0.7080 C.ar    1  UNL1       -0.0476
      8 C           2.1215   -1.8226    0.9479 C.ar    1  UNL1       -0.0193
      9 C          -1.2929   -0.9194   -0.3354 C.ar    1  UNL1        0.1685
     10 N          -1.9693   -1.9892   -0.7203 N.ar    1  UNL1       -0.1285
     11 N          -3.2947   -1.6502   -0.8612 N.ar    1  UNL1       -0.1291
     12 C          -3.4195   -0.3857   -0.5304 C.ar    1  UNL1        0.1613
     13 N          -2.1824    0.1274   -0.1625 N.ar    1  UNL1       -0.2825
     14 C          -2.0104    1.4376    0.2938 C.ar    1  UNL1        0.0132
     15 C          -3.0748    2.2564    0.3578 C.ar    1  UNL1       -0.0450
     16 C          -4.3780    1.7542   -0.0506 C.ar    1  UNL1       -0.0569
     17 C          -4.5416    0.4855   -0.4739 C.ar    1  UNL1       -0.0170
     18 H           6.1406   -0.1888    0.4366 H       1  UNL1        0.0660
     19 H           4.8761    1.0466    0.4244 H       1  UNL1        0.0660
     20 H           5.1098   -0.0494   -0.9930 H       1  UNL1        0.0660
     21 H           2.9268    0.9099   -0.9162 H       1  UNL1        0.0654
     22 H           0.5319    0.8554   -1.3457 H       1  UNL1        0.0626
     23 H           0.1411   -2.6386    1.1514 H       1  UNL1        0.0626
     24 H           2.5710   -2.5864    1.5782 H       1  UNL1        0.0654
     25 H          -1.0178    1.7461    0.5944 H       1  UNL1        0.0814
     26 H          -2.9934    3.2791    0.7114 H       1  UNL1        0.0632
     27 H          -5.2238    2.4338    0.0017 H       1  UNL1        0.0619
     28 H          -5.5115    0.1040   -0.7727 H       1  UNL1        0.0655
@<TRIPOS>BOND
     1     1     2    1
     2     2     3    1
     3     3     4   ar
     4     4     5   ar
     5     5     6   ar
     6     6     7   ar
     7     7     8   ar
     8     6     9    1
     9     9    10   ar
    10    10    11   ar
    11    11    12   ar
    12    12    13   ar
    13    13    14   ar
    14    14    15   ar
    15    15    16   ar
    16    16    17   ar
    17     8     3   ar
    18    13     9   ar
    19    17    12   ar
    20     1    18    1
    21     1    19    1
    22     1    20    1
    23     4    21    1
    24     5    22    1
    25     7    23    1
    26     8    24    1
    27    14    25    1
    28    15    26    1
    29    16    27    1
    30    17    28    1
