@<TRIPOS>MOLECULE
*****
 32 34 0 0 0
SMALL
GASTEIGER

@<TRIPOS>ATOM
      1 C          -4.4044    2.1682    0.1690 C.3     1  UNL1        0.0790
      2 O          -3.9392    0.9234   -0.3313 O.3     1  UNL1       -0.4915
      3 C          -2.6445    0.5649   -0.0499 C.ar    1  UNL1        0.1615
      4 C          -1.7370    1.3663    0.6497 C.ar    1  UNL1       -0.0156
      5 C          -0.4330    0.9193    0.8846 C.ar    1  UNL1       -0.0473
      6 C          -0.0135   -0.3284    0.4126 C.ar    1  UNL1        0.0233
      7 C          -0.9304   -1.1414   -0.2688 C.ar    1  UNL1       -0.0056
      8 C          -2.2395   -0.7051   -0.5070 C.ar    1  UNL1        0.1622
      9 O          -3.1883   -1.4356   -1.1796 O.3     1  UNL1       -0.4914
     10 C          -2.8686   -2.7798   -1.5114 C.3     1  UNL1        0.0790
     11 C           1.3428   -0.8200    0.6454 C.ar    1  UNL1        0.1686
     12 N           1.6478   -2.0151    1.1239 N.ar    1  UNL1       -0.1285
     13 N           3.0153   -2.1189    1.2219 N.ar    1  UNL1       -0.1291
     14 C           3.5330   -0.9992    0.7722 C.ar    1  UNL1        0.1613
     15 N           2.5178   -0.1426    0.3658 N.ar    1  UNL1       -0.2825
     16 C           2.7658    1.1048   -0.2144 C.ar    1  UNL1        0.0132
     17 C           4.0359    1.5192   -0.3644 C.ar    1  UNL1       -0.0450
     18 C           5.1184    0.6557    0.0825 C.ar    1  UNL1       -0.0569
     19 C           4.8750   -0.5533    0.6250 C.ar    1  UNL1       -0.0170
     20 H          -4.3631    2.1957    1.2629 H       1  UNL1        0.0660
     21 H          -5.4524    2.2770   -0.1264 H       1  UNL1        0.0660
     22 H          -3.8475    3.0025   -0.2699 H       1  UNL1        0.0660
     23 H          -2.0154    2.3422    1.0331 H       1  UNL1        0.0655
     24 H           0.2415    1.5522    1.4573 H       1  UNL1        0.0626
     25 H          -0.5925   -2.1166   -0.6086 H       1  UNL1        0.0662
     26 H          -3.7554   -3.2314   -1.9666 H       1  UNL1        0.0660
     27 H          -2.0604   -2.8205   -2.2487 H       1  UNL1        0.0660
     28 H          -2.6209   -3.3624   -0.6178 H       1  UNL1        0.0660
     29 H           1.9184    1.6947   -0.5380 H       1  UNL1        0.0814
     30 H           4.2795    2.4758   -0.8153 H       1  UNL1        0.0632
     31 H           6.1370    1.0125   -0.0405 H       1  UNL1        0.0619
     32 H           5.6779   -1.2038    0.9530 H       1  UNL1        0.0655
@<TRIPOS>BOND
     1     1     2    1
     2     2     3    1
     3     3     4   ar
     4     4     5   ar
     5     5     6   ar
     6     6     7   ar
     7     7     8   ar
     8     8     9    1
     9     9    10    1
    10     6    11    1
    11    11    12   ar
    12    12    13   ar
    13    13    14   ar
    14    14    15   ar
    15    15    16   ar
    16    16    17   ar
    17    17    18   ar
    18    18    19   ar
    19     8     3   ar
    20    15    11   ar
    21    19    14   ar
    22     1    20    1
    23     1    21    1
    24     1    22    1
    25     4    23    1
    26     5    24    1
    27     7    25    1
    28    10    26    1
    29    10    27    1
    30    10    28    1
    31    16    29    1
    32    17    30    1
    33    18    31    1
    34    19    32    1
