@<TRIPOS>MOLECULE
*****
 27 30 0 0 0
SMALL
GASTEIGER

@<TRIPOS>ATOM
      1 C          -4.0421   -1.2557   -0.4819 C.3     1  UNL1        0.0788
      2 O          -2.6222   -1.2421   -0.4541 O.3     1  UNL1       -0.4944
      3 C          -2.0129   -0.0888   -0.0629 C.ar    1  UNL1        0.1313
      4 C          -2.6592    1.0961    0.3179 C.ar    1  UNL1       -0.0192
      5 C          -1.9356    2.2488    0.7108 C.ar    1  UNL1       -0.0576
      6 C          -0.5389    2.2639    0.7390 C.ar    1  UNL1       -0.0517
      7 C           0.1076    1.1064    0.3673 C.ar    1  UNL1        0.0130
      8 C          -0.6308   -0.0755   -0.0355 C.ar    1  UNL1        0.0685
      9 C           0.3469   -1.1049   -0.3594 C.ar    1  UNL1        0.1498
     10 N           0.5013   -2.3436   -0.7660 N.ar    1  UNL1       -0.2347
     11 C           1.9026   -2.5218   -0.8016 C.ar    1  UNL1        0.0538
     12 C           2.5739   -1.3748   -0.4115 C.ar    1  UNL1        0.0666
     13 N           1.5507   -0.5362   -0.1514 N.ar    1  UNL1       -0.2921
     14 C           1.5428    0.7681    0.2794 C.ar    1  UNL1        0.0565
     15 C           2.7434    1.3327    0.4860 C.ar    1  UNL1       -0.0371
     16 C           3.9362    0.4887    0.2270 C.ar    1  UNL1       -0.0578
     17 C           3.8583   -0.8017   -0.2008 C.ar    1  UNL1       -0.0362
     18 H          -4.3613   -2.2480   -0.8150 H       1  UNL1        0.0660
     19 H          -4.4581   -1.0900    0.5173 H       1  UNL1        0.0660
     20 H          -4.4300   -0.5234   -1.1977 H       1  UNL1        0.0660
     21 H          -3.7435    1.1662    0.3230 H       1  UNL1        0.0654
     22 H          -2.4852    3.1440    0.9974 H       1  UNL1        0.0619
     23 H           0.0059    3.1510    1.0412 H       1  UNL1        0.0624
     24 H           2.3220   -3.4711   -1.1083 H       1  UNL1        0.0851
     25 H           2.8718    2.3528    0.8252 H       1  UNL1        0.0638
     26 H           4.9054    0.9507    0.3958 H       1  UNL1        0.0619
     27 H           4.7509   -1.3918   -0.3809 H       1  UNL1        0.0639
@<TRIPOS>BOND
     1     1     2    1
     2     2     3    1
     3     3     4   ar
     4     4     5   ar
     5     5     6   ar
     6     6     7   ar
     7     7     8   ar
     8     8     9   ar
     9     9    10   ar
    10    10    11   ar
    11    11    12   ar
    12    12    13   ar
    13    13    14   ar
    14    14    15   ar
    15    15    16   ar
    16    16    17   ar
    17     8     3   ar
    18    14     7   ar
    19    13     9   ar
    20    17    12   ar
    21     1    18    1
    22     1    19    1
    23     1    20    1
    24     4    21    1
    25     5    22    1
    26     6    23    1
    27    11    24    1
    28    15    25    1
    29    16    26    1
    30    17    27    1
