@<TRIPOS>MOLECULE
*****
 37 41 0 0 0
SMALL
GASTEIGER

@<TRIPOS>ATOM
      1 C           5.7628   -1.7823    0.1020 C.3     1  UNL1        0.0788
      2 O           4.9409   -0.6376   -0.0919 O.3     1  UNL1       -0.4951
      3 C           3.5902   -0.8172    0.0355 C.ar    1  UNL1        0.1207
      4 C           2.8271    0.3429   -0.1655 C.ar    1  UNL1       -0.0115
      5 C           1.4215    0.3423   -0.0718 C.ar    1  UNL1       -0.0018
      6 C           0.8025   -0.8856    0.2272 C.ar    1  UNL1        0.0258
      7 C           1.5606   -2.0478    0.4317 C.ar    1  UNL1       -0.0471
      8 C           2.9511   -2.0143    0.3377 C.ar    1  UNL1       -0.0192
      9 C          -0.6519   -0.9371    0.2983 C.ar    1  UNL1        0.1469
     10 N          -1.3840   -1.9877    0.6030 N.ar    1  UNL1       -0.2272
     11 C          -2.6769   -1.5842    0.4377 C.ar    1  UNL1        0.0900
     12 C          -3.8459   -2.3471    0.5946 C.ar    1  UNL1       -0.0342
     13 C          -5.0823   -1.7676    0.3066 C.ar    1  UNL1       -0.0596
     14 C          -5.1513   -0.4549   -0.1474 C.ar    1  UNL1       -0.0597
     15 C          -3.9958    0.3236   -0.3022 C.ar    1  UNL1       -0.0357
     16 C          -2.7541   -0.2483    0.0309 C.ar    1  UNL1        0.0739
     17 N          -1.4296    0.1838    0.0402 N.ar    1  UNL1       -0.2915
     18 C          -0.8462    1.4716   -0.1686 C.ar    1  UNL1        0.0563
     19 C           0.5729    1.5556   -0.2505 C.ar    1  UNL1        0.0068
     20 C           1.1305    2.8302   -0.4791 C.ar    1  UNL1       -0.0520
     21 C           0.3346    3.9718   -0.5974 C.ar    1  UNL1       -0.0611
     22 C          -1.0426    3.8721   -0.4714 C.ar    1  UNL1       -0.0598
     23 C          -1.6328    2.6289   -0.2494 C.ar    1  UNL1       -0.0372
     24 H           5.6616   -2.1730    1.1199 H       1  UNL1        0.0660
     25 H           6.8036   -1.4729   -0.0336 H       1  UNL1        0.0660
     26 H           5.5454   -2.5550   -0.6427 H       1  UNL1        0.0660
     27 H           3.3748    1.2511   -0.3983 H       1  UNL1        0.0660
     28 H           1.0602   -2.9872    0.6613 H       1  UNL1        0.0626
     29 H           3.4969   -2.9368    0.5022 H       1  UNL1        0.0654
     30 H          -3.7750   -3.3799    0.9188 H       1  UNL1        0.0639
     31 H          -5.9908   -2.3542    0.4179 H       1  UNL1        0.0618
     32 H          -6.1201   -0.0258   -0.3964 H       1  UNL1        0.0618
     33 H          -4.0969    1.3243   -0.7012 H       1  UNL1        0.0639
     34 H           2.2041    2.9733   -0.5603 H       1  UNL1        0.0624
     35 H           0.7979    4.9406   -0.7682 H       1  UNL1        0.0618
     36 H          -1.6602    4.7649   -0.5331 H       1  UNL1        0.0618
     37 H          -2.7028    2.6198   -0.1011 H       1  UNL1        0.0638
@<TRIPOS>BOND
     1     1     2    1
     2     2     3    1
     3     3     4   ar
     4     4     5   ar
     5     5     6   ar
     6     6     7   ar
     7     7     8   ar
     8     6     9   ar
     9     9    10   ar
    10    10    11   ar
    11    11    12   ar
    12    12    13   ar
    13    13    14   ar
    14    14    15   ar
    15    11    16   ar
    16    16    17   ar
    17    17    18   ar
    18    18    19   ar
    19    19    20   ar
    20    20    21   ar
    21    21    22   ar
    22    22    23   ar
    23     8     3   ar
    24    19     5   ar
    25    17     9   ar
    26    16    15   ar
    27    23    18   ar
    28     1    24    1
    29     1    25    1
    30     1    26    1
    31     4    27    1
    32     7    28    1
    33     8    29    1
    34    12    30    1
    35    13    31    1
    36    14    32    1
    37    15    33    1
    38    20    34    1
    39    21    35    1
    40    22    36    1
    41    23    37    1
