@<TRIPOS>MOLECULE
*****
 32 33 0 0 0
SMALL
GASTEIGER

@<TRIPOS>ATOM
      1 C           5.4311   -0.5794    0.5092 C.3     1  UNL1        0.0790
      2 O           4.5399   -0.2234   -0.5380 O.3     1  UNL1       -0.4898
      3 C           3.1929   -0.1752   -0.2523 C.ar    1  UNL1        0.1895
      4 C           2.6061   -0.4027    0.9301 C.ar    1  UNL1        0.0647
      5 N           1.2598   -0.3680    1.1845 N.ar    1  UNL1       -0.2980
      6 N           0.3677    0.1930    0.2545 N.ar    1  UNL1       -0.2460
      7 C          -1.0528    0.1687    0.6449 C.3     1  UNL1        0.0544
      8 C          -1.7955    1.4771    0.2997 C.3     1  UNL1       -0.0304
      9 C          -2.9341    1.2817   -0.6975 C.3     1  UNL1       -0.0511
     10 C          -3.9233    0.2094   -0.2458 C.3     1  UNL1       -0.0529
     11 C          -3.2641   -1.0141    0.3927 C.3     1  UNL1       -0.0511
     12 C          -1.7666   -1.0879    0.1203 C.3     1  UNL1       -0.0304
     13 C           0.7748    0.3423   -1.0764 C.ar    1  UNL1        0.3165
     14 O           0.0122    0.6164   -1.9978 O.2     1  UNL1       -0.2619
     15 C           2.2692    0.1687   -1.3730 C.ar    1  UNL1        0.2869
     16 O           2.6858    0.3276   -2.5169 O.2     1  UNL1       -0.2781
     17 H           5.2171   -1.5868    0.8807 H       1  UNL1        0.0660
     18 H           5.3923    0.1530    1.3220 H       1  UNL1        0.0660
     19 H           6.4470   -0.5785    0.1032 H       1  UNL1        0.0660
     20 H           3.1781   -0.6553    1.8167 H       1  UNL1        0.0861
     21 H           1.0301   -0.1703    2.1618 H       1  UNL1        0.1865
     22 H          -1.0626    0.1094    1.7429 H       1  UNL1        0.0545
     23 H          -1.1064    2.2465   -0.0679 H       1  UNL1        0.0286
     24 H          -2.2251    1.8834    1.2255 H       1  UNL1        0.0286
     25 H          -3.4652    2.2290   -0.8465 H       1  UNL1        0.0266
     26 H          -2.5247    1.0038   -1.6754 H       1  UNL1        0.0266
     27 H          -4.6323    0.6416    0.4712 H       1  UNL1        0.0265
     28 H          -4.5217   -0.1034   -1.1101 H       1  UNL1        0.0265
     29 H          -3.4282   -0.9832    1.4774 H       1  UNL1        0.0266
     30 H          -3.7559   -1.9262    0.0352 H       1  UNL1        0.0266
     31 H          -1.5998   -1.2187   -0.9556 H       1  UNL1        0.0286
     32 H          -1.3462   -1.9784    0.6035 H       1  UNL1        0.0286
@<TRIPOS>BOND
     1     1     2    1
     2     2     3    1
     3     3     4   ar
     4     4     5   ar
     5     5     6   ar
     6     6     7    1
     7     7     8    1
     8     8     9    1
     9     9    10    1
    10    10    11    1
    11    11    12    1
    12     6    13   ar
    13    13    14    2
    14    13    15   ar
    15    15    16    2
    16    15     3   ar
    17    12     7    1
    18     1    17    1
    19     1    18    1
    20     1    19    1
    21     4    20    1
    22     5    21    1
    23     7    22    1
    24     8    23    1
    25     8    24    1
    26     9    25    1
    27     9    26    1
    28    10    27    1
    29    10    28    1
    30    11    29    1
    31    11    30    1
    32    12    31    1
    33    12    32    1
