@<TRIPOS>MOLECULE
*****
 33 36 0 0 0
SMALL
GASTEIGER

@<TRIPOS>ATOM
      1 C          -1.2715    3.2044   -1.3327 C.3     1  UNL1        0.0789
      2 O          -1.3254    2.6308   -0.0250 O.3     1  UNL1       -0.4933
      3 C          -1.3947    1.2461   -0.1220 C.ar    1  UNL1        0.1427
      4 C          -0.1969    0.5042   -0.1328 C.ar    1  UNL1        0.0361
      5 C           1.1755    0.9336   -0.0740 C.ar    1  UNL1       -0.0350
      6 C           2.0911   -0.0977   -0.1393 C.ar    1  UNL1        0.0273
      7 C           3.5339    0.0271   -0.0974 C.ar    1  UNL1        0.0259
      8 C           4.2552    1.1005    0.4005 C.ar    1  UNL1       -0.0464
      9 C           5.6662    0.9262    0.2882 C.ar    1  UNL1       -0.0541
     10 C           5.9882   -0.2754   -0.2971 C.ar    1  UNL1       -0.0237
     11 S           4.5988   -1.1800   -0.7046 S.2     1  UNL1       -0.0961
     12 S           1.2818   -1.5988   -0.2616 S.2     1  UNL1       -0.0839
     13 C          -0.2848   -0.8829   -0.2069 C.ar    1  UNL1        0.0657
     14 C          -1.5337   -1.5223   -0.2294 C.ar    1  UNL1        0.1427
     15 O          -1.6000   -2.9069   -0.3296 O.3     1  UNL1       -0.4933
     16 C          -1.6542   -3.4845    0.9762 C.3     1  UNL1        0.0789
     17 C          -2.7331   -0.7822   -0.2169 C.ar    1  UNL1        0.0355
     18 C          -4.1050   -1.2141   -0.2731 C.ar    1  UNL1       -0.0433
     19 C          -5.0006   -0.1746   -0.2101 C.ar    1  UNL1       -0.0230
     20 S          -4.2144    1.3300   -0.0886 S.2     1  UNL1       -0.0929
     21 C          -2.6445    0.6083   -0.1436 C.ar    1  UNL1        0.0651
     22 H          -0.3567    2.9086   -1.8572 H       1  UNL1        0.0660
     23 H          -2.1510    2.9371   -1.9279 H       1  UNL1        0.0660
     24 H          -1.2585    4.2924   -1.2190 H       1  UNL1        0.0660
     25 H           1.4577    1.9768    0.0017 H       1  UNL1        0.0636
     26 H           3.7965    1.9783    0.8393 H       1  UNL1        0.0629
     27 H           6.4043    1.6456    0.6212 H       1  UNL1        0.0623
     28 H           6.9736   -0.6687   -0.5063 H       1  UNL1        0.0693
     29 H          -0.7763   -3.2164    1.5734 H       1  UNL1        0.0660
     30 H          -1.6638   -4.5722    0.8593 H       1  UNL1        0.0660
     31 H          -2.5705   -3.1929    1.5003 H       1  UNL1        0.0660
     32 H          -4.4066   -2.2517   -0.3521 H       1  UNL1        0.0630
     33 H          -6.0806   -0.2286   -0.2274 H       1  UNL1        0.0694
@<TRIPOS>BOND
     1     1     2    1
     2     2     3    1
     3     3     4   ar
     4     4     5   ar
     5     5     6   ar
     6     6     7    1
     7     7     8   ar
     8     8     9   ar
     9     9    10   ar
    10    10    11   ar
    11     6    12   ar
    12    12    13   ar
    13    13    14   ar
    14    14    15    1
    15    15    16    1
    16    14    17   ar
    17    17    18   ar
    18    18    19   ar
    19    19    20   ar
    20    20    21   ar
    21    21     3   ar
    22    13     4   ar
    23    21    17   ar
    24    11     7   ar
    25     1    22    1
    26     1    23    1
    27     1    24    1
    28     5    25    1
    29     8    26    1
    30     9    27    1
    31    10    28    1
    32    16    29    1
    33    16    30    1
    34    16    31    1
    35    18    32    1
    36    19    33    1
