@<TRIPOS>MOLECULE
*****
 40 44 0 0 0
SMALL
GASTEIGER

@<TRIPOS>ATOM
      1 C          -4.2522    2.7363   -0.7113 C.3     1  UNL1        0.0789
      2 O          -3.8488    1.9856    0.4355 O.3     1  UNL1       -0.4933
      3 C          -3.2056    0.8213    0.0324 C.ar    1  UNL1        0.1427
      4 C          -3.9698   -0.3463   -0.1658 C.ar    1  UNL1        0.0355
      5 C          -5.3851   -0.5769   -0.0394 C.ar    1  UNL1       -0.0433
      6 C          -5.7511   -1.8649   -0.3456 C.ar    1  UNL1       -0.0230
      7 S          -4.4089   -2.8163   -0.7821 S.2     1  UNL1       -0.0929
      8 C          -3.3012   -1.5107   -0.5447 C.ar    1  UNL1        0.0651
      9 C          -1.9057   -1.5214   -0.6873 C.ar    1  UNL1        0.1427
     10 O          -1.2630   -2.6855   -1.0914 O.3     1  UNL1       -0.4933
     11 C          -0.8113   -3.4108    0.0544 C.3     1  UNL1        0.0789
     12 C          -1.1432   -0.3537   -0.4868 C.ar    1  UNL1        0.0361
     13 C           0.2717   -0.1232   -0.6099 C.ar    1  UNL1       -0.0350
     14 C           0.6578    1.1607   -0.2914 C.ar    1  UNL1        0.0280
     15 C           2.0008    1.6849   -0.2835 C.ar    1  UNL1        0.0388
     16 S           2.3701    3.3032   -0.8081 S.2     1  UNL1       -0.0946
     17 C           4.0607    3.1271   -0.5172 C.ar    1  UNL1       -0.0108
     18 C           4.3126    1.8737   -0.0449 C.ar    1  UNL1        0.0570
     19 C           3.1676    1.0648    0.0833 C.ar    1  UNL1        0.0646
     20 C           3.5840   -0.2161    0.6007 C.2     1  UNL1        0.2547
     21 O           2.8733   -1.1714    0.8644 O.2     1  UNL1       -0.2695
     22 N           4.9608   -0.1131    0.7357 N.am    1  UNL1       -0.2372
     23 C           5.7743   -1.1800    1.2581 C.3     1  UNL1        0.0115
     24 C           5.4654    1.1256    0.3805 C.2     1  UNL1        0.2541
     25 O           6.6155    1.5260    0.4163 O.2     1  UNL1       -0.2695
     26 S          -0.6990    2.1040    0.1418 S.2     1  UNL1       -0.0839
     27 C          -1.8094    0.8082   -0.1063 C.ar    1  UNL1        0.0657
     28 H          -3.3964    3.0052   -1.3396 H       1  UNL1        0.0660
     29 H          -4.7155    3.6621   -0.3576 H       1  UNL1        0.0660
     30 H          -4.9963    2.1900   -1.3006 H       1  UNL1        0.0660
     31 H          -6.0944    0.1845    0.2622 H       1  UNL1        0.0630
     32 H          -6.7446   -2.2917   -0.3348 H       1  UNL1        0.0694
     33 H          -0.3679   -4.3470   -0.2977 H       1  UNL1        0.0660
     34 H          -0.0397   -2.8554    0.5978 H       1  UNL1        0.0660
     35 H          -1.6404   -3.6605    0.7252 H       1  UNL1        0.0660
     36 H           0.9654   -0.8981   -0.9150 H       1  UNL1        0.0636
     37 H           4.7516    3.9381   -0.7057 H       1  UNL1        0.0701
     38 H           5.6625   -1.1962    2.3463 H       1  UNL1        0.0434
     39 H           5.4289   -2.1373    0.8577 H       1  UNL1        0.0434
     40 H           6.8264   -1.0246    1.0053 H       1  UNL1        0.0434
@<TRIPOS>BOND
     1     1     2    1
     2     2     3    1
     3     3     4   ar
     4     4     5   ar
     5     5     6   ar
     6     6     7   ar
     7     7     8   ar
     8     8     9   ar
     9     9    10    1
    10    10    11    1
    11     9    12   ar
    12    12    13   ar
    13    13    14   ar
    14    14    15    1
    15    15    16   ar
    16    16    17   ar
    17    17    18   ar
    18    18    19   ar
    19    19    20    1
    20    20    21    2
    21    20    22   am
    22    22    23    1
    23    22    24   am
    24    24    25    2
    25    14    26   ar
    26    26    27   ar
    27    27     3   ar
    28     8     4   ar
    29    27    12   ar
    30    19    15   ar
    31    24    18    1
    32     1    28    1
    33     1    29    1
    34     1    30    1
    35     5    31    1
    36     6    32    1
    37    11    33    1
    38    11    34    1
    39    11    35    1
    40    13    36    1
    41    17    37    1
    42    23    38    1
    43    23    39    1
    44    23    40    1
