@<TRIPOS>MOLECULE
*****
 41 45 0 0 0
SMALL
GASTEIGER

@<TRIPOS>ATOM
      1 C          -2.7162   -3.0521    1.9167 C.3     1  UNL1        0.0789
      2 O          -2.4458   -2.9277    0.5198 O.3     1  UNL1       -0.4933
      3 C          -2.7009   -1.6260    0.1058 C.ar    1  UNL1        0.1427
      4 C          -3.9869   -1.3029   -0.3716 C.ar    1  UNL1        0.0355
      5 C          -5.1669   -2.1142   -0.5168 C.ar    1  UNL1       -0.0433
      6 C          -6.2384   -1.4215   -1.0253 C.ar    1  UNL1       -0.0230
      7 S          -5.8483    0.2056   -1.3375 S.2     1  UNL1       -0.0929
      8 C          -4.2192    0.0061   -0.7949 C.ar    1  UNL1        0.0651
      9 C          -3.1963    0.9655   -0.7498 C.ar    1  UNL1        0.1427
     10 O          -3.4416    2.2595   -1.1932 O.3     1  UNL1       -0.4933
     11 C          -3.8379    3.0793   -0.0928 C.3     1  UNL1        0.0789
     12 C          -1.8908    0.6202   -0.3477 C.ar    1  UNL1        0.0361
     13 C          -0.6848    1.4035   -0.2978 C.ar    1  UNL1       -0.0350
     14 C           0.4116    0.7006    0.1523 C.ar    1  UNL1        0.0284
     15 C           1.7426    1.2042    0.3336 C.ar    1  UNL1        0.0402
     16 S           2.0681    2.6546    1.2186 S.2     1  UNL1       -0.0944
     17 C           3.7687    2.5368    0.9832 C.ar    1  UNL1       -0.0154
     18 C           4.0085    1.4335    0.2414 C.ar    1  UNL1       -0.0025
     19 C           5.1972    0.8552   -0.2657 C.ar    1  UNL1       -0.0359
     20 C           4.9684   -0.3124   -1.0172 C.ar    1  UNL1        0.0554
     21 C           5.9542   -1.1660   -1.6861 C.2     1  UNL1        0.1667
     22 C           7.4040   -0.7580   -1.5600 C.3     1  UNL1       -0.0009
     23 O           5.6713   -2.1764   -2.3317 O.2     1  UNL1       -0.2918
     24 S           3.2705   -0.7813   -1.1584 S.2     1  UNL1       -0.0842
     25 C           2.9107    0.6672   -0.1455 C.ar    1  UNL1        0.0353
     26 S          -0.0119   -0.9046    0.5412 S.2     1  UNL1       -0.0839
     27 C          -1.6606   -0.6848    0.0829 C.ar    1  UNL1        0.0657
     28 H          -2.4675   -4.0749    2.2150 H       1  UNL1        0.0660
     29 H          -2.1001   -2.3676    2.5093 H       1  UNL1        0.0660
     30 H          -3.7774   -2.8862    2.1306 H       1  UNL1        0.0660
     31 H          -5.2089   -3.1663   -0.2614 H       1  UNL1        0.0630
     32 H          -7.2313   -1.7962   -1.2330 H       1  UNL1        0.0694
     33 H          -4.7434    2.6963    0.3897 H       1  UNL1        0.0660
     34 H          -4.0590    4.0773   -0.4827 H       1  UNL1        0.0660
     35 H          -3.0303    3.1745    0.6410 H       1  UNL1        0.0660
     36 H          -0.6416    2.4436   -0.6000 H       1  UNL1        0.0636
     37 H           4.4498    3.2716    1.3890 H       1  UNL1        0.0700
     38 H           6.1854    1.2668   -0.0984 H       1  UNL1        0.0636
     39 H           7.5565    0.2309   -2.0006 H       1  UNL1        0.0309
     40 H           7.7057   -0.7595   -0.5091 H       1  UNL1        0.0309
     41 H           8.0328   -1.4740   -2.0982 H       1  UNL1        0.0309
@<TRIPOS>BOND
     1     1     2    1
     2     2     3    1
     3     3     4   ar
     4     4     5   ar
     5     5     6   ar
     6     6     7   ar
     7     7     8   ar
     8     8     9   ar
     9     9    10    1
    10    10    11    1
    11     9    12   ar
    12    12    13   ar
    13    13    14   ar
    14    14    15    1
    15    15    16   ar
    16    16    17   ar
    17    17    18   ar
    18    18    19   ar
    19    19    20   ar
    20    20    21    1
    21    21    22    1
    22    21    23    2
    23    20    24   ar
    24    24    25   ar
    25    14    26   ar
    26    26    27   ar
    27    27     3   ar
    28     8     4   ar
    29    27    12   ar
    30    25    15   ar
    31    25    18   ar
    32     1    28    1
    33     1    29    1
    34     1    30    1
    35     5    31    1
    36     6    32    1
    37    11    33    1
    38    11    34    1
    39    11    35    1
    40    13    36    1
    41    17    37    1
    42    19    38    1
    43    22    39    1
    44    22    40    1
    45    22    41    1
