@<TRIPOS>MOLECULE
*****
 41 45 0 0 0
SMALL
GASTEIGER

@<TRIPOS>ATOM
      1 C          -4.5165    2.1956    1.1620 C.3     1  UNL1        0.0789
      2 O          -3.8258    2.1392   -0.0871 O.3     1  UNL1       -0.4933
      3 C          -3.1595    0.9250   -0.2008 C.ar    1  UNL1        0.1427
      4 C          -3.8227   -0.1625   -0.8038 C.ar    1  UNL1        0.0355
      5 C          -5.1483   -0.2669   -1.3547 C.ar    1  UNL1       -0.0433
      6 C          -5.4264   -1.5142   -1.8581 C.ar    1  UNL1       -0.0230
      7 S          -4.1073   -2.5753   -1.6817 S.2     1  UNL1       -0.0929
      8 C          -3.1304   -1.3682   -0.9224 C.ar    1  UNL1        0.0651
      9 C          -1.8117   -1.4855   -0.4575 C.ar    1  UNL1        0.1427
     10 O          -1.1307   -2.6882   -0.6018 O.3     1  UNL1       -0.4933
     11 C          -1.2982   -3.4815    0.5743 C.3     1  UNL1        0.0789
     12 C          -1.1249   -0.3755    0.0728 C.ar    1  UNL1        0.0361
     13 C           0.2330   -0.2414    0.5297 C.ar    1  UNL1       -0.0350
     14 C           0.5410    1.0205    0.9894 C.ar    1  UNL1        0.0280
     15 C           1.8102    1.4706    1.4953 C.ar    1  UNL1        0.0369
     16 S           1.9541    2.4299    2.9290 S.2     1  UNL1       -0.0943
     17 C           3.6720    2.4935    2.8453 C.ar    1  UNL1       -0.0093
     18 C           4.1188    1.8023    1.7572 C.ar    1  UNL1        0.0305
     19 S           5.7883    1.5192    1.1514 S.2     1  UNL1       -0.0819
     20 C           5.0198    0.6147   -0.1612 C.ar    1  UNL1        0.0906
     21 C           5.8939    0.0247   -1.1717 C.2     1  UNL1        0.1694
     22 C           5.2380   -0.7222   -2.3092 C.3     1  UNL1       -0.0008
     23 O           7.1237    0.1030   -1.1415 O.2     1  UNL1       -0.2917
     24 C           3.6249    0.5691   -0.0802 C.ar    1  UNL1        0.1497
     25 F           2.8692   -0.0651   -0.9897 F       1  UNL1       -0.2035
     26 C           3.0669    1.2461    1.0317 C.ar    1  UNL1        0.0404
     27 S          -0.8103    2.0558    0.8671 S.2     1  UNL1       -0.0839
     28 C          -1.8179    0.8263    0.1976 C.ar    1  UNL1        0.0657
     29 H          -5.3003    1.4326    1.2156 H       1  UNL1        0.0660
     30 H          -3.8288    2.0909    2.0079 H       1  UNL1        0.0660
     31 H          -4.9949    3.1768    1.2348 H       1  UNL1        0.0660
     32 H          -5.8558    0.5533   -1.3804 H       1  UNL1        0.0630
     33 H          -6.3414   -1.8509   -2.3261 H       1  UNL1        0.0694
     34 H          -2.3539   -3.6995    0.7670 H       1  UNL1        0.0660
     35 H          -0.8475   -2.9956    1.4464 H       1  UNL1        0.0660
     36 H          -0.7808   -4.4317    0.4123 H       1  UNL1        0.0660
     37 H           0.9440   -1.0590    0.5102 H       1  UNL1        0.0636
     38 H           4.2694    3.0217    3.5763 H       1  UNL1        0.0705
     39 H           6.0077   -1.0956   -2.9918 H       1  UNL1        0.0309
     40 H           4.5808   -0.0530   -2.8709 H       1  UNL1        0.0309
     41 H           4.6784   -1.5790   -1.9245 H       1  UNL1        0.0309
@<TRIPOS>BOND
     1     1     2    1
     2     2     3    1
     3     3     4   ar
     4     4     5   ar
     5     5     6   ar
     6     6     7   ar
     7     7     8   ar
     8     8     9   ar
     9     9    10    1
    10    10    11    1
    11     9    12   ar
    12    12    13   ar
    13    13    14   ar
    14    14    15    1
    15    15    16   ar
    16    16    17   ar
    17    17    18   ar
    18    18    19   ar
    19    19    20   ar
    20    20    21    1
    21    21    22    1
    22    21    23    2
    23    20    24   ar
    24    24    25    1
    25    24    26   ar
    26    14    27   ar
    27    27    28   ar
    28    28     3   ar
    29     8     4   ar
    30    28    12   ar
    31    26    15   ar
    32    26    18   ar
    33     1    29    1
    34     1    30    1
    35     1    31    1
    36     5    32    1
    37     6    33    1
    38    11    34    1
    39    11    35    1
    40    11    36    1
    41    13    37    1
    42    17    38    1
    43    22    39    1
    44    22    40    1
    45    22    41    1
