@<TRIPOS>MOLECULE
*****
 41 45 0 0 0
SMALL
GASTEIGER

@<TRIPOS>ATOM
      1 C           1.2443   -3.4845   -0.9230 C.3     1  UNL1        0.0789
      2 O           0.5142   -3.3653    0.2992 O.3     1  UNL1       -0.4933
      3 C          -0.6580   -2.6515    0.0798 C.ar    1  UNL1        0.1427
      4 C          -1.8233   -3.3490   -0.2972 C.ar    1  UNL1        0.0355
      5 C          -2.0466   -4.7520   -0.5291 C.ar    1  UNL1       -0.0433
      6 C          -3.3341   -5.0371   -0.9133 C.ar    1  UNL1       -0.0230
      7 S          -4.2937   -3.6340   -0.9964 S.2     1  UNL1       -0.0929
      8 C          -2.9936   -2.6138   -0.4890 C.ar    1  UNL1        0.0651
      9 C          -3.0125   -1.2275   -0.2725 C.ar    1  UNL1        0.1427
     10 O          -4.1806   -0.5084   -0.4947 O.3     1  UNL1       -0.4933
     11 C          -4.9266   -0.4085    0.7200 C.3     1  UNL1        0.0789
     12 C          -1.8472   -0.5324    0.1067 C.ar    1  UNL1        0.0361
     13 C          -1.6236    0.8694    0.3439 C.ar    1  UNL1       -0.0350
     14 C          -0.3336    1.1708    0.7279 C.ar    1  UNL1        0.0279
     15 C           0.1984    2.4672    1.0618 C.ar    1  UNL1        0.0342
     16 S          -0.7488    3.6367    1.9210 S.2     1  UNL1       -0.0944
     17 C           0.5120    4.8059    1.9408 C.ar    1  UNL1       -0.0094
     18 C           1.6165    4.3230    1.3022 C.ar    1  UNL1        0.0276
     19 S           3.2140    5.0816    0.9983 S.2     1  UNL1       -0.0848
     20 C           3.6260    3.5782    0.1698 C.ar    1  UNL1        0.0554
     21 C           4.9670    3.4820   -0.4131 C.2     1  UNL1        0.1667
     22 C           5.3160    2.1859   -1.1077 C.3     1  UNL1       -0.0009
     23 O           5.8064    4.3828   -0.3685 O.2     1  UNL1       -0.2918
     24 C           2.6007    2.6137    0.1551 C.ar    1  UNL1       -0.0353
     25 C           1.4140    3.0287    0.8266 C.ar    1  UNL1        0.0051
     26 S           0.6151   -0.2460    0.8063 S.2     1  UNL1       -0.0839
     27 C          -0.6790   -1.2656    0.2975 C.ar    1  UNL1        0.0657
     28 H           1.4933   -2.5032   -1.3410 H       1  UNL1        0.0660
     29 H           0.6924   -4.0792   -1.6586 H       1  UNL1        0.0660
     30 H           2.1809   -4.0052   -0.7025 H       1  UNL1        0.0660
     31 H          -1.2808   -5.5104   -0.4181 H       1  UNL1        0.0630
     32 H          -3.7559   -6.0040   -1.1514 H       1  UNL1        0.0694
     33 H          -5.1883   -1.3955    1.1156 H       1  UNL1        0.0660
     34 H          -5.8562    0.1237    0.4974 H       1  UNL1        0.0660
     35 H          -4.3798    0.1676    1.4740 H       1  UNL1        0.0660
     36 H          -2.4016    1.6158    0.2301 H       1  UNL1        0.0636
     37 H           0.3976    5.7769    2.4030 H       1  UNL1        0.0705
     38 H           6.3409    2.2400   -1.4877 H       1  UNL1        0.0309
     39 H           4.6446    2.0201   -1.9546 H       1  UNL1        0.0309
     40 H           5.2558    1.3524   -0.4026 H       1  UNL1        0.0309
     41 H           2.7138    1.6508   -0.3274 H       1  UNL1        0.0636
@<TRIPOS>BOND
     1     1     2    1
     2     2     3    1
     3     3     4   ar
     4     4     5   ar
     5     5     6   ar
     6     6     7   ar
     7     7     8   ar
     8     8     9   ar
     9     9    10    1
    10    10    11    1
    11     9    12   ar
    12    12    13   ar
    13    13    14   ar
    14    14    15    1
    15    15    16   ar
    16    16    17   ar
    17    17    18   ar
    18    18    19   ar
    19    19    20   ar
    20    20    21    1
    21    21    22    1
    22    21    23    2
    23    20    24   ar
    24    24    25   ar
    25    14    26   ar
    26    26    27   ar
    27    27     3   ar
    28     8     4   ar
    29    27    12   ar
    30    25    15   ar
    31    25    18   ar
    32     1    28    1
    33     1    29    1
    34     1    30    1
    35     5    31    1
    36     6    32    1
    37    11    33    1
    38    11    34    1
    39    11    35    1
    40    13    36    1
    41    17    37    1
    42    22    38    1
    43    22    39    1
    44    22    40    1
    45    24    41    1
