@<TRIPOS>MOLECULE
*****
 45 52 0 0 0
SMALL
GASTEIGER

@<TRIPOS>ATOM
      1 SI         -7.1190   -0.8592    0.5262 Si      1  UNL1        0.0000
      2 C          -5.6373   -1.6787    1.4141 C.2     1  UNL1        0.0000
      3 C          -4.4661   -1.1164    1.0423 C.2     1  UNL1        0.0000
      4 C          -4.5788   -0.0547    0.0825 C.ar    1  UNL1        0.0000
      5 C          -5.8939    0.2736   -0.3442 C.ar    1  UNL1        0.0000
      6 C          -5.9708    1.2925   -1.2405 C.ar    1  UNL1        0.0000
      7 S          -4.3855    1.8776   -1.5795 S.2     1  UNL1        0.0000
      8 C          -3.6162    0.7320   -0.5128 C.ar    1  UNL1        0.0000
      9 C          -2.2091    0.7282   -0.3868 C.2     1  UNL1        0.0000
     10 C          -1.5038    1.6787    0.2530 C.2     1  UNL1        0.0000
     11 C          -0.0704    1.4106    0.2216 C.ar    1  UNL1        0.0000
     12 C           0.4138    0.2347   -0.4493 C.ar    1  UNL1        0.0000
     13 SI         -1.1451   -0.6306   -1.1197 Si      1  UNL1        0.0000
     14 C           1.8255   -0.1392   -0.5451 C.ar    1  UNL1        0.0000
     15 C           2.4528   -1.2669   -1.1746 C.ar    1  UNL1        0.0000
     16 C           1.8540   -2.3016   -1.8652 C.ar    1  UNL1        0.0000
     17 N           2.8375   -3.1775   -2.3082 N.ar    1  UNL1        0.0000
     18 C           4.0803   -2.7356   -1.9188 C.ar    1  UNL1        0.0000
     19 C           3.8296   -1.5843   -1.2382 C.ar    1  UNL1        0.0000
     20 C           4.7547   -0.7184   -0.6219 C.ar    1  UNL1        0.0000
     21 C           6.1395   -0.7547   -0.5134 C.ar    1  UNL1        0.0000
     22 C           6.4346    0.3842    0.2095 C.ar    1  UNL1        0.0000
     23 O           5.3017    1.0823    0.5288 O.2     1  UNL1        0.0000
     24 C           4.2360    0.3901    0.0054 C.ar    1  UNL1        0.0000
     25 C           2.8611    0.7022    0.0656 C.ar    1  UNL1        0.0000
     26 C           2.3342    1.8363    0.7071 C.ar    1  UNL1        0.0000
     27 C           2.9948    2.8352    1.3782 C.ar    1  UNL1        0.0000
     28 O           2.0988    3.7534    1.8536 O.2     1  UNL1        0.0000
     29 C           0.8499    3.3395    1.4829 C.ar    1  UNL1        0.0000
     30 C           0.9463    2.1689    0.7790 C.ar    1  UNL1        0.0000
     31 H          -7.7956   -1.8243   -0.3758 H       1  UNL1        0.0000
     32 H          -8.0042   -0.1667    1.4953 H       1  UNL1        0.0000
     33 H          -5.7880   -2.4796    2.1199 H       1  UNL1        0.0000
     34 H          -3.5093   -1.4314    1.4428 H       1  UNL1        0.0000
     35 H          -6.8354    1.7365   -1.7148 H       1  UNL1        0.0000
     36 H          -1.9251    2.5460    0.7420 H       1  UNL1        0.0000
     37 H          -1.3641   -1.9496   -0.4675 H       1  UNL1        0.0000
     38 H          -1.1673   -0.6651   -2.6058 H       1  UNL1        0.0000
     39 H           0.8306   -2.5368   -2.1084 H       1  UNL1        0.0000
     40 H           2.6603   -4.0190   -2.8420 H       1  UNL1        0.0000
     41 H           4.9821   -3.2782   -2.1659 H       1  UNL1        0.0000
     42 H           6.8418   -1.4820   -0.8914 H       1  UNL1        0.0000
     43 H           7.3570    0.8231    0.5642 H       1  UNL1        0.0000
     44 H           4.0307    3.0457    1.6039 H       1  UNL1        0.0000
     45 H           0.0374    3.9795    1.7956 H       1  UNL1        0.0000
@<TRIPOS>BOND
     1     1     2    1
     2     2     3    2
     3     3     4    1
     4     4     5   ar
     5     5     6   ar
     6     6     7   ar
     7     7     8   ar
     8     8     9    1
     9     9    10    2
    10    10    11    1
    11    11    12   ar
    12    12    13    1
    13    12    14   ar
    14    14    15   ar
    15    15    16   ar
    16    16    17   ar
    17    17    18   ar
    18    18    19   ar
    19    19    20   ar
    20    20    21   ar
    21    21    22   ar
    22    22    23   ar
    23    23    24   ar
    24    24    25   ar
    25    25    26   ar
    26    26    27   ar
    27    27    28   ar
    28    28    29   ar
    29    29    30   ar
    30     5     1    1
    31    13     9    1
    32    25    14   ar
    33    30    26   ar
    34     8     4   ar
    35    30    11   ar
    36    19    15   ar
    37    24    20   ar
    38     1    31    1
    39     1    32    1
    40     2    33    1
    41     3    34    1
    42     6    35    1
    43    10    36    1
    44    13    37    1
    45    13    38    1
    46    16    39    1
    47    17    40    1
    48    18    41    1
    49    21    42    1
    50    22    43    1
    51    27    44    1
    52    29    45    1
