@<TRIPOS>MOLECULE
*****
 42 46 0 0 0
SMALL
GASTEIGER

@<TRIPOS>ATOM
      1 C          -2.5925   -1.9307    2.7399 C.3     1  UNL1        0.0789
      2 O          -2.5731   -0.5499    2.3748 O.3     1  UNL1       -0.4933
      3 C          -2.7519   -0.4244    1.0025 C.ar    1  UNL1        0.1427
      4 C          -4.0596   -0.2927    0.4936 C.ar    1  UNL1        0.0355
      5 C          -5.3320   -0.2667    1.1659 C.ar    1  UNL1       -0.0433
      6 C          -6.3933   -0.1213    0.3062 C.ar    1  UNL1       -0.0230
      7 S          -5.8835   -0.0118   -1.3140 S.2     1  UNL1       -0.0929
      8 C          -4.2148   -0.1547   -0.8861 C.ar    1  UNL1        0.0651
      9 C          -3.0975   -0.1419   -1.7349 C.ar    1  UNL1        0.1427
     10 O          -3.2710    0.0172   -3.1043 O.3     1  UNL1       -0.4933
     11 C          -3.3478   -1.2629   -3.7334 C.3     1  UNL1        0.0789
     12 C          -1.7885   -0.1939   -1.2165 C.ar    1  UNL1        0.0361
     13 C          -0.5121   -0.1169   -1.8769 C.ar    1  UNL1       -0.0350
     14 C           0.5634   -0.2011   -1.0182 C.ar    1  UNL1        0.0279
     15 C           1.9606   -0.1714   -1.3627 C.ar    1  UNL1        0.0342
     16 S           2.5617   -0.9859   -2.7682 S.2     1  UNL1       -0.0944
     17 C           4.1919   -0.5202   -2.4756 C.ar    1  UNL1       -0.0093
     18 C           4.2721    0.2404   -1.3458 C.ar    1  UNL1        0.0288
     19 S           5.6888    1.0128   -0.5533 S.2     1  UNL1       -0.0695
     20 C           4.5273    1.6192    0.6163 C.ar    1  UNL1        0.1262
     21 S           5.2305    2.6361    1.9131 S.O2    1  UNL1        0.0003
     22 C           6.3101    1.5414    2.7970 C.3     1  UNL1        0.0602
     23 O           6.0107    3.6568    1.2454 O.2     1  UNL1       -0.1691
     24 O           4.1073    2.9647    2.7682 O.2     1  UNL1       -0.1691
     25 C           3.1913    1.2425    0.3936 C.ar    1  UNL1       -0.0208
     26 C           3.0223    0.4177   -0.7525 C.ar    1  UNL1        0.0063
     27 S           0.0349   -0.3879    0.5935 S.2     1  UNL1       -0.0839
     28 C          -1.6334   -0.3389    0.1599 C.ar    1  UNL1        0.0657
     29 H          -2.4064   -1.9940    3.8161 H       1  UNL1        0.0660
     30 H          -1.8058   -2.4940    2.2268 H       1  UNL1        0.0660
     31 H          -3.5710   -2.3797    2.5391 H       1  UNL1        0.0660
     32 H          -5.4469   -0.3443    2.2405 H       1  UNL1        0.0630
     33 H          -7.4446   -0.0691    0.5543 H       1  UNL1        0.0694
     34 H          -4.1804   -1.8559   -3.3404 H       1  UNL1        0.0660
     35 H          -2.4075   -1.8139   -3.6253 H       1  UNL1        0.0660
     36 H          -3.5229   -1.1001   -4.8010 H       1  UNL1        0.0660
     37 H          -0.4109    0.0110   -2.9487 H       1  UNL1        0.0636
     38 H           5.0038   -0.8099   -3.1286 H       1  UNL1        0.0705
     39 H           5.7395    0.6733    3.1327 H       1  UNL1        0.0468
     40 H           7.1377    1.2410    2.1530 H       1  UNL1        0.0468
     41 H           6.6996    2.0828    3.6622 H       1  UNL1        0.0468
     42 H           2.3940    1.5773    1.0484 H       1  UNL1        0.0648
@<TRIPOS>BOND
     1     1     2    1
     2     2     3    1
     3     3     4   ar
     4     4     5   ar
     5     5     6   ar
     6     6     7   ar
     7     7     8   ar
     8     8     9   ar
     9     9    10    1
    10    10    11    1
    11     9    12   ar
    12    12    13   ar
    13    13    14   ar
    14    14    15    1
    15    15    16   ar
    16    16    17   ar
    17    17    18   ar
    18    18    19   ar
    19    19    20   ar
    20    20    21    1
    21    21    22    1
    22    21    23    2
    23    21    24    2
    24    20    25   ar
    25    25    26   ar
    26    14    27   ar
    27    27    28   ar
    28    28     3   ar
    29     8     4   ar
    30    28    12   ar
    31    26    15   ar
    32    26    18   ar
    33     1    29    1
    34     1    30    1
    35     1    31    1
    36     5    32    1
    37     6    33    1
    38    11    34    1
    39    11    35    1
    40    11    36    1
    41    13    37    1
    42    17    38    1
    43    22    39    1
    44    22    40    1
    45    22    41    1
    46    25    42    1
