@<TRIPOS>MOLECULE
*****
 41 43 0 0 0
SMALL
GASTEIGER

@<TRIPOS>ATOM
      1 C          -3.1796   -2.5850   -2.4916 C.3     1  UNL1        0.0790
      2 O          -3.5971   -1.7524   -1.4176 O.3     1  UNL1       -0.4913
      3 C          -2.7838   -0.6990   -1.0887 C.ar    1  UNL1        0.1659
      4 C          -1.4879   -0.5143   -1.5698 C.ar    1  UNL1       -0.0040
      5 C          -0.7336    0.5971   -1.1647 C.ar    1  UNL1        0.0438
      6 C           0.6459    0.7405   -1.7109 C.2     1  UNL1        0.2446
      7 O           0.9441    0.2060   -2.7731 O.2     1  UNL1       -0.2702
      8 N           1.5350    1.4599   -0.9447 N.am    1  UNL1       -0.3057
      9 C           2.9471    1.4728   -1.2591 C.3     1  UNL1        0.0558
     10 C           3.6163    0.4857   -0.3627 C.ar    1  UNL1        0.0776
     11 C           4.3791   -0.6257   -0.7046 C.ar    1  UNL1        0.0345
     12 N           4.7115   -1.1908    0.4876 N.ar    1  UNL1       -0.3002
     13 C           5.4253   -2.2850    0.9173 C.ar    1  UNL1        0.0183
     14 C           5.4296   -2.3734    2.2591 C.ar    1  UNL1       -0.0044
     15 S           4.5220   -1.0641    3.0410 S.2     1  UNL1       -0.0577
     16 C           4.1584   -0.4251    1.4684 C.ar    1  UNL1        0.1776
     17 N           3.4843    0.5976    1.0214 N.ar    1  UNL1       -0.2247
     18 C          -1.2839    1.5482   -0.2925 C.ar    1  UNL1       -0.0040
     19 C          -2.5780    1.3768    0.2026 C.ar    1  UNL1        0.1659
     20 O          -3.2084    2.2389    1.0623 O.3     1  UNL1       -0.4913
     21 C          -2.5578    3.4663    1.3604 C.3     1  UNL1        0.0790
     22 C          -3.3097    0.2390   -0.1834 C.ar    1  UNL1        0.2035
     23 O          -4.6025    0.0866    0.2695 O.3     1  UNL1       -0.4885
     24 C          -4.6050   -0.6775    1.4741 C.3     1  UNL1        0.0791
     25 H          -2.2891   -3.1598   -2.2174 H       1  UNL1        0.0660
     26 H          -3.0112   -2.0045   -3.4049 H       1  UNL1        0.0660
     27 H          -3.9850   -3.2976   -2.6942 H       1  UNL1        0.0660
     28 H          -1.0332   -1.2220   -2.2566 H       1  UNL1        0.0663
     29 H           1.3321    1.5880    0.0390 H       1  UNL1        0.1494
     30 H           3.3227    2.4785   -1.0471 H       1  UNL1        0.0527
     31 H           3.1209    1.2439   -2.3148 H       1  UNL1        0.0527
     32 H           4.6767   -1.0381   -1.6578 H       1  UNL1        0.0832
     33 H           5.8981   -2.9513    0.2132 H       1  UNL1        0.0819
     34 H           5.9198   -3.1438    2.8394 H       1  UNL1        0.0709
     35 H          -0.7016    2.4229   -0.0279 H       1  UNL1        0.0663
     36 H          -3.2248    4.0518    2.0005 H       1  UNL1        0.0660
     37 H          -1.6304    3.2939    1.9163 H       1  UNL1        0.0660
     38 H          -2.3726    4.0485    0.4516 H       1  UNL1        0.0660
     39 H          -4.0416   -0.1746    2.2677 H       1  UNL1        0.0660
     40 H          -5.6429   -0.7736    1.8068 H       1  UNL1        0.0660
     41 H          -4.2091   -1.6855    1.3093 H       1  UNL1        0.0660
@<TRIPOS>BOND
     1     1     2    1
     2     2     3    1
     3     3     4   ar
     4     4     5   ar
     5     5     6    1
     6     6     7    2
     7     6     8   am
     8     8     9    1
     9     9    10    1
    10    10    11   ar
    11    11    12   ar
    12    12    13   ar
    13    13    14   ar
    14    14    15   ar
    15    15    16   ar
    16    16    17   ar
    17     5    18   ar
    18    18    19   ar
    19    19    20    1
    20    20    21    1
    21    19    22   ar
    22    22    23    1
    23    23    24    1
    24    22     3   ar
    25    17    10   ar
    26    16    12   ar
    27     1    25    1
    28     1    26    1
    29     1    27    1
    30     4    28    1
    31     8    29    1
    32     9    30    1
    33     9    31    1
    34    11    32    1
    35    13    33    1
    36    14    34    1
    37    18    35    1
    38    21    36    1
    39    21    37    1
    40    21    38    1
    41    24    39    1
    42    24    40    1
    43    24    41    1
