@<TRIPOS>MOLECULE
*****
 43 44 0 0 0
SMALL
GASTEIGER

@<TRIPOS>ATOM
      1 C          -3.7752   -3.5124   -1.1253 C.3     1  UNL1        0.0790
      2 O          -4.2687   -2.2392   -0.7297 O.3     1  UNL1       -0.4913
      3 C          -3.3493   -1.2546   -0.4778 C.ar    1  UNL1        0.1660
      4 C          -1.9674   -1.4433   -0.4459 C.ar    1  UNL1       -0.0021
      5 C          -1.1064   -0.3656   -0.1806 C.ar    1  UNL1        0.0665
      6 C           0.3590   -0.6434   -0.1607 C.2     1  UNL1        0.3447
      7 O           0.8229   -1.7600   -0.3373 O.2     1  UNL1       -0.2445
      8 O           1.0533    0.5262    0.0782 O.3     1  UNL1       -0.4223
      9 C           2.4377    0.3478    0.1087 C.ar    1  UNL1        0.1325
     10 C           3.1707    0.5366   -1.0610 C.ar    1  UNL1       -0.0163
     11 C           4.5631    0.4126   -1.0280 C.ar    1  UNL1       -0.0467
     12 C           5.3754    0.6367   -2.2689 C.3     1  UNL1       -0.0396
     13 C           5.1961    0.1333    0.1937 C.ar    1  UNL1       -0.0557
     14 C           4.4530   -0.0533    1.3702 C.ar    1  UNL1       -0.0467
     15 C           5.1487   -0.3233    2.6713 C.3     1  UNL1       -0.0396
     16 C           3.0612    0.0733    1.3242 C.ar    1  UNL1       -0.0163
     17 C          -1.6337    0.9147    0.0538 C.ar    1  UNL1       -0.0021
     18 C          -3.0144    1.1221    0.0252 C.ar    1  UNL1        0.1660
     19 O          -3.6286    2.3285    0.2414 O.3     1  UNL1       -0.4913
     20 C          -2.8047    3.4841    0.3144 C.3     1  UNL1        0.0790
     21 C          -3.8628    0.0284   -0.2222 C.ar    1  UNL1        0.2035
     22 O          -5.2229    0.2373   -0.2955 O.3     1  UNL1       -0.4885
     23 C          -5.8148    0.0310    0.9860 C.3     1  UNL1        0.0791
     24 H          -3.1678   -3.4385   -2.0334 H       1  UNL1        0.0660
     25 H          -3.2167   -3.9864   -0.3117 H       1  UNL1        0.0660
     26 H          -4.6362   -4.1486   -1.3518 H       1  UNL1        0.0660
     27 H          -1.5308   -2.4224   -0.6236 H       1  UNL1        0.0663
     28 H           2.6587    0.7751   -1.9886 H       1  UNL1        0.0657
     29 H           4.8103    0.3524   -3.1628 H       1  UNL1        0.0278
     30 H           6.2861    0.0287   -2.2541 H       1  UNL1        0.0278
     31 H           5.6546    1.6918   -2.3477 H       1  UNL1        0.0278
     32 H           6.2819    0.0585    0.2290 H       1  UNL1        0.0623
     33 H           4.5118   -0.9109    3.3408 H       1  UNL1        0.0278
     34 H           6.0672   -0.8975    2.5109 H       1  UNL1        0.0278
     35 H           5.4022    0.6210    3.1629 H       1  UNL1        0.0278
     36 H           2.4654   -0.0435    2.2245 H       1  UNL1        0.0657
     37 H          -0.9599    1.7388    0.2608 H       1  UNL1        0.0663
     38 H          -3.4595    4.3572    0.3942 H       1  UNL1        0.0660
     39 H          -2.1738    3.4590    1.2087 H       1  UNL1        0.0660
     40 H          -2.2021    3.6014   -0.5925 H       1  UNL1        0.0660
     41 H          -5.6760   -0.9998    1.3297 H       1  UNL1        0.0660
     42 H          -6.8895    0.2125    0.8909 H       1  UNL1        0.0660
     43 H          -5.4183    0.7336    1.7271 H       1  UNL1        0.0660
@<TRIPOS>BOND
     1     1     2    1
     2     2     3    1
     3     3     4   ar
     4     4     5   ar
     5     5     6    1
     6     6     7    2
     7     6     8    1
     8     8     9    1
     9     9    10   ar
    10    10    11   ar
    11    11    12    1
    12    11    13   ar
    13    13    14   ar
    14    14    15    1
    15    14    16   ar
    16     5    17   ar
    17    17    18   ar
    18    18    19    1
    19    19    20    1
    20    18    21   ar
    21    21    22    1
    22    22    23    1
    23    21     3   ar
    24    16     9   ar
    25     1    24    1
    26     1    25    1
    27     1    26    1
    28     4    27    1
    29    10    28    1
    30    12    29    1
    31    12    30    1
    32    12    31    1
    33    13    32    1
    34    15    33    1
    35    15    34    1
    36    15    35    1
    37    16    36    1
    38    17    37    1
    39    20    38    1
    40    20    39    1
    41    20    40    1
    42    23    41    1
    43    23    42    1
    44    23    43    1
