@<TRIPOS>MOLECULE
*****
 35 36 0 0 0
SMALL
GASTEIGER

@<TRIPOS>ATOM
      1 C           1.6351   -2.7745   -0.3167 C.3     1  UNL1        0.0789
      2 O           0.9397   -1.7096    0.3392 O.3     1  UNL1       -0.4931
      3 C           1.4734   -0.4941    0.0152 C.ar    1  UNL1        0.1467
      4 C           2.7081   -0.1354    0.5704 C.ar    1  UNL1       -0.0140
      5 C           3.2684    1.1308    0.3345 C.ar    1  UNL1       -0.0329
      6 C           4.5979    1.4692    0.9499 C.3     1  UNL1       -0.0385
      7 C           2.5499    2.0449   -0.4523 C.ar    1  UNL1        0.0229
      8 BR          3.2055    3.7907   -0.8160 Br      1  UNL1       -0.0500
      9 C           1.3084    1.6980   -0.9921 C.ar    1  UNL1       -0.0175
     10 C           0.7631    0.4306   -0.7485 C.ar    1  UNL1        0.1479
     11 S          -0.7920    0.0347   -1.5070 S.O2    1  UNL1        0.0645
     12 O          -0.9652    0.9499   -2.6185 O.2     1  UNL1       -0.1527
     13 O          -0.8887   -1.3911   -1.7362 O.2     1  UNL1       -0.1527
     14 N          -1.9412    0.4674   -0.3204 N.3     1  UNL1       -0.1721
     15 C          -1.8576   -0.2979    0.9681 C.3     1  UNL1        0.0440
     16 C          -3.1616   -0.1551    1.7602 C.3     1  UNL1        0.0621
     17 O          -4.2961   -0.7113    1.0802 O.3     1  UNL1       -0.3771
     18 C          -4.1730   -0.6666   -0.3498 C.3     1  UNL1        0.0621
     19 C          -3.3510    0.5285   -0.8396 C.3     1  UNL1        0.0440
     20 H           0.9955   -3.6614   -0.2729 H       1  UNL1        0.0660
     21 H           1.8344   -2.5469   -1.3725 H       1  UNL1        0.0660
     22 H           2.5712   -3.0033    0.2094 H       1  UNL1        0.0660
     23 H           3.2310   -0.8476    1.2063 H       1  UNL1        0.0658
     24 H           5.3189    1.7560    0.1773 H       1  UNL1        0.0278
     25 H           5.0214    0.6126    1.4837 H       1  UNL1        0.0278
     26 H           4.4869    2.2837    1.6727 H       1  UNL1        0.0278
     27 H           0.7621    2.4177   -1.6012 H       1  UNL1        0.0649
     28 H          -1.6839   -1.3595    0.7653 H       1  UNL1        0.0466
     29 H          -1.0318    0.1016    1.5649 H       1  UNL1        0.0466
     30 H          -3.3769    0.9002    1.9660 H       1  UNL1        0.0573
     31 H          -3.0764   -0.6652    2.7254 H       1  UNL1        0.0573
     32 H          -3.7258   -1.6113   -0.6807 H       1  UNL1        0.0573
     33 H          -5.1862   -0.6217   -0.7618 H       1  UNL1        0.0573
     34 H          -3.3769    0.5719   -1.9326 H       1  UNL1        0.0466
     35 H          -3.7866    1.4643   -0.4701 H       1  UNL1        0.0466
@<TRIPOS>BOND
     1     1     2    1
     2     2     3    1
     3     3     4   ar
     4     4     5   ar
     5     5     6    1
     6     5     7   ar
     7     7     8    1
     8     7     9   ar
     9     9    10   ar
    10    10    11    1
    11    11    12    2
    12    11    13    2
    13    11    14    1
    14    14    15    1
    15    15    16    1
    16    16    17    1
    17    17    18    1
    18    18    19    1
    19    10     3   ar
    20    19    14    1
    21     1    20    1
    22     1    21    1
    23     1    22    1
    24     4    23    1
    25     6    24    1
    26     6    25    1
    27     6    26    1
    28     9    27    1
    29    15    28    1
    30    15    29    1
    31    16    30    1
    32    16    31    1
    33    18    32    1
    34    18    33    1
    35    19    34    1
    36    19    35    1
