@<TRIPOS>MOLECULE
*****
 38 39 0 0 0
SMALL
GASTEIGER

@<TRIPOS>ATOM
      1 C           2.4733   -2.2330   -0.8333 C.3     1  UNL1        0.0789
      2 O           1.6006   -1.1072   -0.7456 O.3     1  UNL1       -0.4931
      3 C           2.0333   -0.1491    0.1313 C.ar    1  UNL1        0.1467
      4 C           3.3169    0.4000    0.0021 C.ar    1  UNL1       -0.0137
      5 C           3.7587    1.4234    0.8550 C.ar    1  UNL1       -0.0286
      6 C           5.1413    1.9833    0.6762 C.3     1  UNL1       -0.0382
      7 C           2.8801    1.9094    1.8352 C.ar    1  UNL1        0.0460
      8 CL          3.3466    3.1678    2.9282 Cl      1  UNL1       -0.0832
      9 C           1.5953    1.3808    1.9604 C.ar    1  UNL1       -0.0131
     10 C           1.1667    0.3587    1.1008 C.ar    1  UNL1        0.1480
     11 S          -0.4534   -0.3185    1.3590 S.O2    1  UNL1        0.0620
     12 O          -0.4861   -1.7084    0.9676 O.2     1  UNL1       -0.1529
     13 O          -0.8779    0.0766    2.6863 O.2     1  UNL1       -0.1529
     14 N          -1.3963    0.5664    0.3181 N.3     1  UNL1       -0.1874
     15 C          -1.4798    0.2717   -1.1111 C.3     1  UNL1        0.0437
     16 C          -2.9124   -0.1221   -1.5084 C.3     1  UNL1        0.0728
     17 C          -3.3566   -1.4986   -1.0315 C.3     1  UNL1       -0.0233
     18 C          -4.2015   -1.1987    0.1800 C.3     1  UNL1       -0.0271
     19 C          -4.8212    0.1307   -0.1831 C.3     1  UNL1        0.0482
     20 O          -3.8463    0.8376   -0.9611 O.3     1  UNL1       -0.3752
     21 H           1.8692   -3.1042   -1.1180 H       1  UNL1        0.0660
     22 H           2.9664   -2.4587    0.1230 H       1  UNL1        0.0660
     23 H           3.2147   -2.0626   -1.6187 H       1  UNL1        0.0660
     24 H           3.9798    0.0384   -0.7819 H       1  UNL1        0.0658
     25 H           5.7183    1.4046   -0.0538 H       1  UNL1        0.0278
     26 H           5.0864    3.0135    0.3174 H       1  UNL1        0.0278
     27 H           5.6954    1.9515    1.6180 H       1  UNL1        0.0278
     28 H           0.9291    1.7649    2.7297 H       1  UNL1        0.0653
     29 H          -2.1303    1.1469    0.7277 H       1  UNL1        0.1481
     30 H          -1.2105    1.1965   -1.6332 H       1  UNL1        0.0467
     31 H          -0.7723   -0.4950   -1.4266 H       1  UNL1        0.0467
     32 H          -2.9852   -0.0759   -2.6011 H       1  UNL1        0.0609
     33 H          -3.9912   -1.9576   -1.8021 H       1  UNL1        0.0291
     34 H          -2.5336   -2.1918   -0.8364 H       1  UNL1        0.0291
     35 H          -4.9490   -1.9713    0.3909 H       1  UNL1        0.0288
     36 H          -3.5647   -1.0932    1.0667 H       1  UNL1        0.0288
     37 H          -5.7154   -0.0008   -0.8040 H       1  UNL1        0.0560
     38 H          -5.0886    0.7240    0.6956 H       1  UNL1        0.0560
@<TRIPOS>BOND
     1     1     2    1
     2     2     3    1
     3     3     4   ar
     4     4     5   ar
     5     5     6    1
     6     5     7   ar
     7     7     8    1
     8     7     9   ar
     9     9    10   ar
    10    10    11    1
    11    11    12    2
    12    11    13    2
    13    11    14    1
    14    14    15    1
    15    15    16    1
    16    16    17    1
    17    17    18    1
    18    18    19    1
    19    19    20    1
    20    10     3   ar
    21    20    16    1
    22     1    21    1
    23     1    22    1
    24     1    23    1
    25     4    24    1
    26     6    25    1
    27     6    26    1
    28     6    27    1
    29     9    28    1
    30    14    29    1
    31    15    30    1
    32    15    31    1
    33    16    32    1
    34    17    33    1
    35    17    34    1
    36    18    35    1
    37    18    36    1
    38    19    37    1
    39    19    38    1
