@<TRIPOS>MOLECULE
*****
 41 42 0 0 0
SMALL
GASTEIGER

@<TRIPOS>ATOM
      1 C          -1.8915    1.3645    3.3048 C.3     1  UNL1        0.0789
      2 O          -1.4826    0.7799    2.0749 O.3     1  UNL1       -0.4932
      3 C          -2.4701    0.4036    1.1941 C.ar    1  UNL1        0.1426
      4 C          -3.8378    0.5918    1.4021 C.ar    1  UNL1        0.0005
      5 C          -4.7588    0.1749    0.4359 C.ar    1  UNL1        0.0474
      6 CL         -6.4371    0.4391    0.7576 Cl      1  UNL1       -0.0831
      7 C          -4.3298   -0.4346   -0.7505 C.ar    1  UNL1       -0.0302
      8 C          -5.2972   -0.8930   -1.8059 C.3     1  UNL1       -0.0383
      9 C          -2.9513   -0.6199   -0.9527 C.ar    1  UNL1       -0.0326
     10 C          -2.0203   -0.2079    0.0054 C.ar    1  UNL1        0.0762
     11 N          -0.6251   -0.3680   -0.1421 N.am    1  UNL1       -0.2784
     12 C           0.0791   -0.8996   -1.1997 C.2     1  UNL1        0.2520
     13 O          -0.4105   -1.3587   -2.2276 O.2     1  UNL1       -0.2697
     14 C           1.5711   -0.9289   -1.0518 C.ar    1  UNL1        0.0822
     15 C           2.2748   -1.8199   -1.8771 C.ar    1  UNL1       -0.0458
     16 C           3.6627   -1.9252   -1.7924 C.ar    1  UNL1       -0.0574
     17 C           4.3706   -1.1463   -0.8762 C.ar    1  UNL1       -0.0163
     18 C           3.6969   -0.2463   -0.0461 C.ar    1  UNL1        0.1622
     19 O           4.3032    0.5493    0.8926 O.3     1  UNL1       -0.4914
     20 C           5.6932    0.3554    1.1180 C.3     1  UNL1        0.0790
     21 C           2.2968   -0.1203   -0.1591 C.ar    1  UNL1        0.1736
     22 O           1.6353    0.7652    0.6635 O.3     1  UNL1       -0.4907
     23 C           1.7080    2.0894    0.1259 C.3     1  UNL1        0.0790
     24 H          -2.5046    0.6698    3.8882 H       1  UNL1        0.0660
     25 H          -0.9905    1.5821    3.8864 H       1  UNL1        0.0660
     26 H          -2.4149    2.3112    3.1360 H       1  UNL1        0.0660
     27 H          -4.2145    1.0605    2.3045 H       1  UNL1        0.0669
     28 H          -4.7789   -1.3443   -2.6587 H       1  UNL1        0.0278
     29 H          -5.8763   -0.0455   -2.1865 H       1  UNL1        0.0278
     30 H          -5.9761   -1.6490   -1.3985 H       1  UNL1        0.0278
     31 H          -2.6223   -1.0942   -1.8726 H       1  UNL1        0.0640
     32 H          -0.0846   -0.0169    0.6485 H       1  UNL1        0.1552
     33 H           1.7384   -2.4458   -2.5891 H       1  UNL1        0.0626
     34 H           4.1917   -2.6232   -2.4376 H       1  UNL1        0.0619
     35 H           5.4484   -1.2664   -0.8370 H       1  UNL1        0.0655
     36 H           5.9053   -0.6719    1.4322 H       1  UNL1        0.0660
     37 H           5.9954    1.0211    1.9323 H       1  UNL1        0.0660
     38 H           6.2762    0.6282    0.2324 H       1  UNL1        0.0660
     39 H           2.7247    2.4901    0.1836 H       1  UNL1        0.0660
     40 H           1.3444    2.1213   -0.9074 H       1  UNL1        0.0660
     41 H           1.0586    2.7286    0.7317 H       1  UNL1        0.0660
@<TRIPOS>BOND
     1     1     2    1
     2     2     3    1
     3     3     4   ar
     4     4     5   ar
     5     5     6    1
     6     5     7   ar
     7     7     8    1
     8     7     9   ar
     9     9    10   ar
    10    10    11    1
    11    11    12   am
    12    12    13    2
    13    12    14    1
    14    14    15   ar
    15    15    16   ar
    16    16    17   ar
    17    17    18   ar
    18    18    19    1
    19    19    20    1
    20    18    21   ar
    21    21    22    1
    22    22    23    1
    23    10     3   ar
    24    21    14   ar
    25     1    24    1
    26     1    25    1
    27     1    26    1
    28     4    27    1
    29     8    28    1
    30     8    29    1
    31     8    30    1
    32     9    31    1
    33    11    32    1
    34    15    33    1
    35    16    34    1
    36    17    35    1
    37    20    36    1
    38    20    37    1
    39    20    38    1
    40    23    39    1
    41    23    40    1
    42    23    41    1
