@<TRIPOS>MOLECULE
*****
 42 44 0 0 0
SMALL
GASTEIGER

@<TRIPOS>ATOM
      1 C          -3.1060   -3.3199   -0.5556 C.3     1  UNL1        0.0790
      2 O          -3.7232   -2.0563   -0.3486 O.3     1  UNL1       -0.4913
      3 C          -2.9013   -0.9662   -0.2059 C.ar    1  UNL1        0.1669
      4 C          -1.5017   -1.0225   -0.1218 C.ar    1  UNL1        0.0051
      5 C          -0.7296    0.1406    0.0330 C.ar    1  UNL1        0.0381
      6 N           0.6725    0.1321    0.1669 N.pl3   1  UNL1       -0.3196
      7 C           1.5244   -0.9351    0.3043 C.2     1  UNL1        0.0065
      8 C           2.8640   -0.9710    0.2994 C.2     1  UNL1        0.0596
      9 C           3.5795   -2.2800    0.5145 C.2     1  UNL1        0.2501
     10 O           3.0861   -3.3792    0.6776 O.2     1  UNL1       -0.2698
     11 N           4.9262   -1.9592    0.4855 N.am    1  UNL1       -0.2809
     12 C           5.1175   -0.5997    0.2541 C.ar    1  UNL1        0.0416
     13 C           6.3319    0.0482    0.1477 C.ar    1  UNL1       -0.0399
     14 C           6.3055    1.4212   -0.0989 C.ar    1  UNL1       -0.0600
     15 C           5.0824    2.1011   -0.2369 C.ar    1  UNL1       -0.0611
     16 C           3.8613    1.4218   -0.1286 C.ar    1  UNL1       -0.0521
     17 C           3.8879    0.0623    0.1259 C.ar    1  UNL1        0.0095
     18 C          -1.3950    1.3740    0.0994 C.ar    1  UNL1        0.0051
     19 C          -2.7834    1.4507   -0.0119 C.ar    1  UNL1        0.1669
     20 O          -3.3368    2.7026    0.0752 O.3     1  UNL1       -0.4913
     21 C          -4.0052    3.0645   -1.1354 C.3     1  UNL1        0.0790
     22 C          -3.5396    0.2806   -0.1237 C.ar    1  UNL1        0.2036
     23 O          -4.9108    0.3517   -0.1866 O.3     1  UNL1       -0.4885
     24 C          -5.4544    0.2441    1.1287 C.3     1  UNL1        0.0791
     25 H          -2.5666   -3.6419    0.3407 H       1  UNL1        0.0660
     26 H          -3.8969   -4.0497   -0.7497 H       1  UNL1        0.0660
     27 H          -2.4487   -3.3055   -1.4311 H       1  UNL1        0.0660
     28 H          -1.0006   -1.9811   -0.1793 H       1  UNL1        0.0674
     29 H           1.1081    1.0436    0.1116 H       1  UNL1        0.1516
     30 H           1.0094   -1.8793    0.4651 H       1  UNL1        0.0789
     31 H           5.6534   -2.6483    0.5984 H       1  UNL1        0.1552
     32 H           7.2725   -0.4805    0.2499 H       1  UNL1        0.0636
     33 H           7.2391    1.9727   -0.1898 H       1  UNL1        0.0618
     34 H           5.0859    3.1713   -0.4361 H       1  UNL1        0.0618
     35 H           2.9365    1.9705   -0.2516 H       1  UNL1        0.0624
     36 H          -0.8360    2.2946    0.2418 H       1  UNL1        0.0674
     37 H          -5.0138    2.6394   -1.1741 H       1  UNL1        0.0660
     38 H          -4.1043    4.1547   -1.1388 H       1  UNL1        0.0660
     39 H          -3.4250    2.7807   -2.0240 H       1  UNL1        0.0660
     40 H          -6.5449    0.3075    1.0504 H       1  UNL1        0.0660
     41 H          -5.2058   -0.7194    1.5882 H       1  UNL1        0.0660
     42 H          -5.1146    1.0641    1.7700 H       1  UNL1        0.0660
@<TRIPOS>BOND
     1     1     2    1
     2     2     3    1
     3     3     4   ar
     4     4     5   ar
     5     5     6    1
     6     6     7    1
     7     7     8    2
     8     8     9    1
     9     9    10    2
    10     9    11   am
    11    11    12    1
    12    12    13   ar
    13    13    14   ar
    14    14    15   ar
    15    15    16   ar
    16    16    17   ar
    17     5    18   ar
    18    18    19   ar
    19    19    20    1
    20    20    21    1
    21    19    22   ar
    22    22    23    1
    23    23    24    1
    24    22     3   ar
    25    17     8    1
    26    17    12   ar
    27     1    25    1
    28     1    26    1
    29     1    27    1
    30     4    28    1
    31     6    29    1
    32     7    30    1
    33    11    31    1
    34    13    32    1
    35    14    33    1
    36    15    34    1
    37    16    35    1
    38    18    36    1
    39    21    37    1
    40    21    38    1
    41    21    39    1
    42    24    40    1
    43    24    41    1
    44    24    42    1
