@<TRIPOS>MOLECULE
*****
 44 45 0 0 0
SMALL
GASTEIGER

@<TRIPOS>ATOM
      1 C          -5.7657   -2.6752   -0.4694 C.3     1  UNL1        0.0788
      2 O          -4.4126   -2.5701   -0.0424 O.3     1  UNL1       -0.4950
      3 C          -3.8392   -1.3280   -0.0762 C.ar    1  UNL1        0.1243
      4 C          -4.4730   -0.1398   -0.4547 C.ar    1  UNL1        0.0218
      5 C          -3.7651    1.0662   -0.4539 C.ar    1  UNL1        0.1243
      6 O          -4.2631    2.2909   -0.8053 O.3     1  UNL1       -0.4950
      7 C          -5.6181    2.3468   -1.2330 C.3     1  UNL1        0.0788
      8 C          -2.4243    1.0793   -0.0641 C.ar    1  UNL1       -0.0076
      9 C          -1.7900   -0.1010    0.3344 C.ar    1  UNL1        0.0440
     10 C          -0.3626   -0.0334    0.7431 C.2     1  UNL1        0.2497
     11 O           0.3775    0.8033    0.2339 O.2     1  UNL1       -0.2698
     12 N           0.0307   -0.9318    1.7278 N.am    1  UNL1       -0.2638
     13 C           1.2816   -1.1210    2.2742 C.2     1  UNL1        0.1368
     14 S           1.4487   -2.2822    3.4634 S.2     1  UNL1       -0.0185
     15 N           2.2713   -0.3163    1.7914 N.am    1  UNL1       -0.3260
     16 C           3.6938   -0.3977    2.1021 C.3     1  UNL1        0.0147
     17 C           4.4939    0.7735    1.5233 C.3     1  UNL1       -0.0121
     18 C           4.6364    0.7093    0.0201 C.ar    1  UNL1       -0.0459
     19 C           5.6216   -0.0992   -0.5646 C.ar    1  UNL1       -0.0585
     20 C           5.7449   -0.1733   -1.9534 C.ar    1  UNL1       -0.0615
     21 C           4.8835    0.5563   -2.7704 C.ar    1  UNL1       -0.0617
     22 C           3.8981    1.3597   -2.1999 C.ar    1  UNL1       -0.0615
     23 C           3.7752    1.4379   -0.8117 C.ar    1  UNL1       -0.0585
     24 C          -2.4974   -1.3066    0.3138 C.ar    1  UNL1       -0.0076
     25 H          -5.8741   -2.3689   -1.5154 H       1  UNL1        0.0660
     26 H          -6.0587   -3.7273   -0.3981 H       1  UNL1        0.0660
     27 H          -6.4299   -2.0994    0.1834 H       1  UNL1        0.0660
     28 H          -5.5131   -0.1538   -0.7535 H       1  UNL1        0.0691
     29 H          -5.8483    3.3875   -1.4801 H       1  UNL1        0.0660
     30 H          -5.7716    1.7476   -2.1366 H       1  UNL1        0.0660
     31 H          -6.2970    2.0370   -0.4321 H       1  UNL1        0.0660
     32 H          -1.8750    2.0198   -0.0685 H       1  UNL1        0.0662
     33 H          -0.6731   -1.5236    2.1462 H       1  UNL1        0.1568
     34 H           2.0133    0.2264    0.9664 H       1  UNL1        0.1477
     35 H           3.7992   -0.3979    3.1926 H       1  UNL1        0.0465
     36 H           4.0646   -1.3591    1.7278 H       1  UNL1        0.0465
     37 H           4.0331    1.7267    1.8121 H       1  UNL1        0.0328
     38 H           5.4983    0.7764    1.9651 H       1  UNL1        0.0328
     39 H           6.2997   -0.6773    0.0592 H       1  UNL1        0.0620
     40 H           6.5119   -0.8015   -2.3977 H       1  UNL1        0.0618
     41 H           4.9777    0.4985   -3.8512 H       1  UNL1        0.0618
     42 H           3.2199    1.9237   -2.8350 H       1  UNL1        0.0618
     43 H           2.9944    2.0656   -0.3858 H       1  UNL1        0.0620
     44 H          -2.0173   -2.2481    0.5682 H       1  UNL1        0.0662
@<TRIPOS>BOND
     1     1     2    1
     2     2     3    1
     3     3     4   ar
     4     4     5   ar
     5     5     6    1
     6     6     7    1
     7     5     8   ar
     8     8     9   ar
     9     9    10    1
    10    10    11    2
    11    10    12   am
    12    12    13    1
    13    13    14    2
    14    13    15    1
    15    15    16    1
    16    16    17    1
    17    17    18    1
    18    18    19   ar
    19    19    20   ar
    20    20    21   ar
    21    21    22   ar
    22    22    23   ar
    23     9    24   ar
    24    24     3   ar
    25    23    18   ar
    26     1    25    1
    27     1    26    1
    28     1    27    1
    29     4    28    1
    30     7    29    1
    31     7    30    1
    32     7    31    1
    33     8    32    1
    34    12    33    1
    35    15    34    1
    36    16    35    1
    37    16    36    1
    38    17    37    1
    39    17    38    1
    40    19    39    1
    41    20    40    1
    42    21    41    1
    43    22    42    1
    44    23    43    1
    45    24    44    1
