@<TRIPOS>MOLECULE
*****
 34 35 0 0 0
SMALL
GASTEIGER

@<TRIPOS>ATOM
      1 C          -4.0984    2.2116    0.0184 C.3     1  UNL1        0.0789
      2 O          -4.2780    0.9270   -0.5654 O.3     1  UNL1       -0.4922
      3 C          -3.3494   -0.0332   -0.2682 C.ar    1  UNL1        0.1570
      4 C          -2.2250    0.1480    0.5388 C.ar    1  UNL1        0.0093
      5 C          -1.3475   -0.9249    0.7561 C.ar    1  UNL1        0.1089
      6 S           0.0704   -0.6766    1.7968 S.O2    1  UNL1        0.0588
      7 O           0.7046   -1.9528    2.0346 O.2     1  UNL1       -0.1530
      8 O          -0.3354    0.1919    2.8797 O.2     1  UNL1       -0.1530
      9 N           1.0644    0.2360    0.8063 N.3     1  UNL1       -0.1869
     10 C           1.8686   -0.4172   -0.2329 C.3     1  UNL1        0.0288
     11 C           2.1041    0.5712   -1.3779 C.3     1  UNL1       -0.0359
     12 C           3.4820    1.1970   -1.1396 C.3     1  UNL1       -0.0515
     13 C           4.0053    0.5979    0.1600 C.3     1  UNL1       -0.0515
     14 C           3.2677   -0.7262    0.2881 C.3     1  UNL1       -0.0359
     15 C          -1.5863   -2.1826    0.1935 C.ar    1  UNL1       -0.0324
     16 C          -2.7081   -2.3624   -0.6120 C.ar    1  UNL1       -0.0210
     17 C          -3.5744   -1.2933   -0.8378 C.ar    1  UNL1        0.1649
     18 F          -4.6460   -1.4961   -1.6190 F       1  UNL1       -0.2017
     19 H          -3.1688    2.6746   -0.3297 H       1  UNL1        0.0660
     20 H          -4.9287    2.8457   -0.3072 H       1  UNL1        0.0660
     21 H          -4.1291    2.1574    1.1116 H       1  UNL1        0.0660
     22 H          -2.0072    1.1029    1.0082 H       1  UNL1        0.0675
     23 H           1.3957    1.0997    1.2327 H       1  UNL1        0.1483
     24 H           1.3588   -1.3137   -0.5993 H       1  UNL1        0.0477
     25 H           2.1151    0.0379   -2.3373 H       1  UNL1        0.0281
     26 H           1.3230    1.3385   -1.4436 H       1  UNL1        0.0281
     27 H           3.4281    2.2901   -1.0810 H       1  UNL1        0.0266
     28 H           4.1517    0.9447   -1.9725 H       1  UNL1        0.0266
     29 H           3.7567    1.2548    1.0027 H       1  UNL1        0.0266
     30 H           5.0915    0.4691    0.1488 H       1  UNL1        0.0266
     31 H           3.7458   -1.4762   -0.3543 H       1  UNL1        0.0281
     32 H           3.2820   -1.0981    1.3172 H       1  UNL1        0.0281
     33 H          -0.9122   -3.0161    0.3774 H       1  UNL1        0.0638
     34 H          -2.9208   -3.3266   -1.0643 H       1  UNL1        0.0648
@<TRIPOS>BOND
     1     1     2    1
     2     2     3    1
     3     3     4   ar
     4     4     5   ar
     5     5     6    1
     6     6     7    2
     7     6     8    2
     8     6     9    1
     9     9    10    1
    10    10    11    1
    11    11    12    1
    12    12    13    1
    13    13    14    1
    14     5    15   ar
    15    15    16   ar
    16    16    17   ar
    17    17    18    1
    18    17     3   ar
    19    14    10    1
    20     1    19    1
    21     1    20    1
    22     1    21    1
    23     4    22    1
    24     9    23    1
    25    10    24    1
    26    11    25    1
    27    11    26    1
    28    12    27    1
    29    12    28    1
    30    13    29    1
    31    13    30    1
    32    14    31    1
    33    14    32    1
    34    15    33    1
    35    16    34    1
