@<TRIPOS>MOLECULE
*****
 42 44 0 0 0
SMALL
GASTEIGER

@<TRIPOS>ATOM
      1 C          -4.9730   -0.4676   -2.4183 C.3     1  UNL1        0.0790
      2 O          -4.2096   -1.3158   -1.5725 O.3     1  UNL1       -0.4914
      3 C          -3.1700   -0.7494   -0.8839 C.ar    1  UNL1        0.1618
      4 C          -2.7071    0.5566   -1.0719 C.ar    1  UNL1       -0.0128
      5 C          -1.6523    1.0671   -0.2935 C.ar    1  UNL1       -0.0381
      6 C          -1.0363    0.2574    0.6765 C.ar    1  UNL1       -0.0265
      7 C          -1.5010   -1.0489    0.8661 C.ar    1  UNL1       -0.0116
      8 C          -2.5369   -1.5527    0.0759 C.ar    1  UNL1        0.1618
      9 O          -2.9346   -2.8399    0.3444 O.3     1  UNL1       -0.4914
     10 C          -2.5652   -3.7167   -0.7202 C.3     1  UNL1        0.0790
     11 C           0.0662    0.7972    1.5637 C.3     1  UNL1        0.0248
     12 N           0.7788    1.9707    1.0238 N.3     1  UNL1       -0.2932
     13 C           1.7391    1.6083   -0.0330 C.3     1  UNL1        0.0306
     14 C           2.9547    0.9148    0.5251 C.ar    1  UNL1        0.0040
     15 C           3.7949    1.3379    1.5365 C.ar    1  UNL1       -0.0500
     16 C           4.8493    0.4150    1.7901 C.ar    1  UNL1       -0.0515
     17 C           4.7854   -0.6876    0.9643 C.ar    1  UNL1       -0.0130
     18 C           5.6931   -1.8684    0.9221 C.3     1  UNL1       -0.0334
     19 S           3.4594   -0.5934   -0.1124 S.2     1  UNL1       -0.0971
     20 C          -0.2037    2.9646    0.5639 C.3     1  UNL1        0.0036
     21 C          -1.1426    2.4653   -0.5447 C.3     1  UNL1       -0.0144
     22 H          -5.3919    0.3776   -1.8630 H       1  UNL1        0.0660
     23 H          -5.8093   -1.0530   -2.8118 H       1  UNL1        0.0660
     24 H          -4.3772   -0.1261   -3.2701 H       1  UNL1        0.0660
     25 H          -3.1491    1.2053   -1.8214 H       1  UNL1        0.0658
     26 H          -1.0553   -1.6874    1.6257 H       1  UNL1        0.0658
     27 H          -3.2819   -3.6595   -1.5453 H       1  UNL1        0.0660
     28 H          -1.5472   -3.5200   -1.0792 H       1  UNL1        0.0660
     29 H          -2.5890   -4.7394   -0.3301 H       1  UNL1        0.0660
     30 H           0.7731   -0.0037    1.8118 H       1  UNL1        0.0476
     31 H          -0.3948    1.0891    2.5173 H       1  UNL1        0.0476
     32 H           2.1058    2.5247   -0.5165 H       1  UNL1        0.0481
     33 H           1.2720    1.0099   -0.8248 H       1  UNL1        0.0481
     34 H           3.6459    2.2653    2.0758 H       1  UNL1        0.0626
     35 H           5.6114    0.5530    2.5466 H       1  UNL1        0.0626
     36 H           5.1421   -2.7894    1.1410 H       1  UNL1        0.0283
     37 H           6.1599   -1.9649   -0.0639 H       1  UNL1        0.0283
     38 H           6.4938   -1.7732    1.6636 H       1  UNL1        0.0283
     39 H          -0.8054    3.2770    1.4289 H       1  UNL1        0.0430
     40 H           0.3082    3.8750    0.2277 H       1  UNL1        0.0430
     41 H          -1.9883    3.1576   -0.6301 H       1  UNL1        0.0326
     42 H          -0.6112    2.4677   -1.5042 H       1  UNL1        0.0326
@<TRIPOS>BOND
     1     1     2    1
     2     2     3    1
     3     3     4   ar
     4     4     5   ar
     5     5     6   ar
     6     6     7   ar
     7     7     8   ar
     8     8     9    1
     9     9    10    1
    10     6    11    1
    11    11    12    1
    12    12    13    1
    13    13    14    1
    14    14    15   ar
    15    15    16   ar
    16    16    17   ar
    17    17    18    1
    18    17    19   ar
    19    12    20    1
    20    20    21    1
    21     8     3   ar
    22    19    14   ar
    23    21     5    1
    24     1    22    1
    25     1    23    1
    26     1    24    1
    27     4    25    1
    28     7    26    1
    29    10    27    1
    30    10    28    1
    31    10    29    1
    32    11    30    1
    33    11    31    1
    34    13    32    1
    35    13    33    1
    36    15    34    1
    37    16    35    1
    38    18    36    1
    39    18    37    1
    40    18    38    1
    41    20    39    1
    42    20    40    1
    43    21    41    1
    44    21    42    1
