@<TRIPOS>MOLECULE
*****
 48 55 0 0 0
SMALL
GASTEIGER

@<TRIPOS>ATOM
      1 SI          2.2384   -1.1731    0.0043 Si      1  UNL1        0.0000
      2 C           3.3562    0.3309    0.0808 C.2     1  UNL1        0.0000
      3 C           2.6255    1.4613    0.0232 C.2     1  UNL1        0.0000
      4 C           1.1731    1.2502   -0.0763 C.ar    1  UNL1        0.0000
      5 C           0.2614    2.2641   -0.0707 C.ar    1  UNL1        0.0000
      6 N          -1.0591    2.0326   -0.0852 N.ar    1  UNL1        0.0000
      7 C          -1.5607    0.7719   -0.1315 C.ar    1  UNL1        0.0000
      8 C          -0.7275   -0.3748   -0.2306 C.ar    1  UNL1        0.0000
      9 C           0.6843   -0.0773   -0.1513 C.ar    1  UNL1        0.0000
     10 C          -1.3700   -1.6810   -0.3742 C.ar    1  UNL1        0.0000
     11 C          -0.6567   -2.8740   -0.6768 C.ar    1  UNL1        0.0000
     12 C          -1.2329   -4.1425   -0.7566 C.ar    1  UNL1        0.0000
     13 C          -2.5829   -4.2763   -0.5543 C.ar    1  UNL1        0.0000
     14 C          -3.3397   -3.1335   -0.3175 C.ar    1  UNL1        0.0000
     15 C          -2.7878   -1.8206   -0.2472 C.ar    1  UNL1        0.0000
     16 C          -3.6193   -0.6715   -0.0751 C.ar    1  UNL1        0.0000
     17 C          -5.0851   -0.7671    0.0515 C.ar    1  UNL1        0.0000
     18 C          -6.0136    0.2884    0.1900 C.ar    1  UNL1        0.0000
     19 C          -5.3434    1.4878    0.1887 C.ar    1  UNL1        0.0000
     20 C          -5.9527    2.7108    0.3011 C.ar    1  UNL1        0.0000
     21 N          -4.9520    3.6505    0.2608 N.ar    1  UNL1        0.0000
     22 C          -3.7299    3.0298    0.1265 C.ar    1  UNL1        0.0000
     23 C          -3.9339    1.6677    0.0772 C.ar    1  UNL1        0.0000
     24 C          -2.9688    0.6107   -0.0539 C.ar    1  UNL1        0.0000
     25 C           4.8030    0.1672    0.1842 C.ar    1  UNL1        0.0000
     26 N           5.3088   -1.0568    0.5510 N.ar    1  UNL1        0.0000
     27 C           6.6550   -1.2768    0.6758 C.ar    1  UNL1        0.0000
     28 C           7.6791   -0.3642    0.4625 C.ar    1  UNL1        0.0000
     29 C           7.2201    0.9075    0.0758 C.ar    1  UNL1        0.0000
     30 N           8.0084    1.9600   -0.1942 N.ar    1  UNL1        0.0000
     31 S           7.0009    3.2099   -0.6072 S.2     1  UNL1        0.0000
     32 N           5.5231    2.4762   -0.4598 N.ar    1  UNL1        0.0000
     33 C           5.7461    1.2048   -0.0742 C.ar    1  UNL1        0.0000
     34 H           2.2001   -1.9630    1.2621 H       1  UNL1        0.0000
     35 H           2.4626   -1.9670   -1.2335 H       1  UNL1        0.0000
     36 H           3.0227    2.4679    0.0589 H       1  UNL1        0.0000
     37 H           0.5512    3.3081   -0.0242 H       1  UNL1        0.0000
     38 H           0.3948   -2.8541   -0.9182 H       1  UNL1        0.0000
     39 H          -0.6197   -5.0094   -0.9868 H       1  UNL1        0.0000
     40 H          -3.0587   -5.2512   -0.6063 H       1  UNL1        0.0000
     41 H          -4.4039   -3.3099   -0.1993 H       1  UNL1        0.0000
     42 H          -5.5557   -1.7483    0.0384 H       1  UNL1        0.0000
     43 H          -7.0802    0.1459    0.2761 H       1  UNL1        0.0000
     44 H          -6.9881    3.0048    0.4048 H       1  UNL1        0.0000
     45 H          -5.0867    4.6511    0.3210 H       1  UNL1        0.0000
     46 H          -2.8339    3.6320    0.0786 H       1  UNL1        0.0000
     47 H           6.9024   -2.2948    0.9779 H       1  UNL1        0.0000
     48 H           8.7257   -0.6051    0.5786 H       1  UNL1        0.0000
@<TRIPOS>BOND
     1     1     2    1
     2     2     3    2
     3     3     4    1
     4     4     5   ar
     5     5     6   ar
     6     6     7   ar
     7     7     8   ar
     8     8     9   ar
     9     8    10   ar
    10    10    11   ar
    11    11    12   ar
    12    12    13   ar
    13    13    14   ar
    14    14    15   ar
    15    15    16   ar
    16    16    17   ar
    17    17    18   ar
    18    18    19   ar
    19    19    20   ar
    20    20    21   ar
    21    21    22   ar
    22    22    23   ar
    23    23    24   ar
    24     2    25    1
    25    25    26   ar
    26    26    27   ar
    27    27    28   ar
    28    28    29   ar
    29    29    30   ar
    30    30    31   ar
    31    31    32   ar
    32    32    33   ar
    33     9     1    1
    34    15    10   ar
    35    24    16   ar
    36    33    25   ar
    37     9     4   ar
    38    23    19   ar
    39    33    29   ar
    40    24     7   ar
    41     1    34    1
    42     1    35    1
    43     3    36    1
    44     5    37    1
    45    11    38    1
    46    12    39    1
    47    13    40    1
    48    14    41    1
    49    17    42    1
    50    18    43    1
    51    20    44    1
    52    21    45    1
    53    22    46    1
    54    27    47    1
    55    28    48    1
