@<TRIPOS>MOLECULE
*****
 36 42 0 0 0
SMALL
GASTEIGER

@<TRIPOS>ATOM
      1 SI          6.5674   -1.2603    0.1197 Si      1  UNL1        0.0000
      2 C           5.0176   -2.3715    0.0066 C.2     1  UNL1        0.0000
      3 C           3.8863   -1.6361   -0.0667 C.2     1  UNL1        0.0000
      4 C           4.0812   -0.2133   -0.0433 C.ar    1  UNL1        0.0000
      5 C           5.4267    0.2353    0.0455 C.ar    1  UNL1        0.0000
      6 C           5.5840    1.5848    0.0570 C.ar    1  UNL1        0.0000
      7 S           4.0398    2.3401   -0.0423 S.2     1  UNL1        0.0000
      8 C           3.1742    0.8249   -0.1050 C.ar    1  UNL1        0.0000
      9 C           1.7612    0.8092   -0.1761 C.2     1  UNL1        0.0000
     10 C           0.9522    0.1380    0.6769 C.2     1  UNL1        0.0000
     11 C          -0.4189    0.2779    0.3135 C.ar    1  UNL1        0.0000
     12 O          -1.5331   -0.2374    0.9094 O.2     1  UNL1        0.0000
     13 C          -2.5848    0.2069    0.1485 C.ar    1  UNL1        0.0000
     14 C          -2.1482    0.9753   -0.8950 C.ar    1  UNL1        0.0000
     15 S          -3.4729    1.5462   -1.8707 S.2     1  UNL1        0.0000
     16 C          -4.6277    0.7308   -0.8465 C.ar    1  UNL1        0.0000
     17 C          -6.0355    0.6866   -0.9532 C.ar    1  UNL1        0.0000
     18 C          -6.7984   -0.0376   -0.0127 C.ar    1  UNL1        0.0000
     19 C          -6.0999   -0.7054    1.0231 C.ar    1  UNL1        0.0000
     20 N          -6.6548   -1.4417    2.0049 N.ar    1  UNL1        0.0000
     21 S          -5.3914   -2.0018    2.9562 S.2     1  UNL1        0.0000
     22 N          -4.0793   -1.3317    2.1577 N.ar    1  UNL1        0.0000
     23 C          -4.6502   -0.6787    1.1599 C.ar    1  UNL1        0.0000
     24 C          -3.9658    0.0754    0.1680 C.ar    1  UNL1        0.0000
     25 C          -0.7625    1.0226   -0.7949 C.ar    1  UNL1        0.0000
     26 SI          0.7661    1.6932   -1.5686 Si      1  UNL1        0.0000
     27 H           7.4277   -1.4225   -1.0788 H       1  UNL1        0.0000
     28 H           7.2549   -1.4334    1.4234 H       1  UNL1        0.0000
     29 H           5.1044   -3.4461    0.0038 H       1  UNL1        0.0000
     30 H           2.9005   -2.0807   -0.1421 H       1  UNL1        0.0000
     31 H           6.4865    2.1777    0.1184 H       1  UNL1        0.0000
     32 H           1.2681   -0.4428    1.5329 H       1  UNL1        0.0000
     33 H          -6.5382    1.2121   -1.7628 H       1  UNL1        0.0000
     34 H          -7.8801   -0.0849   -0.0755 H       1  UNL1        0.0000
     35 H           1.0647    1.1165   -2.9050 H       1  UNL1        0.0000
     36 H           0.8782    3.1723   -1.4864 H       1  UNL1        0.0000
@<TRIPOS>BOND
     1     1     2    1
     2     2     3    2
     3     3     4    1
     4     4     5   ar
     5     5     6   ar
     6     6     7   ar
     7     7     8   ar
     8     8     9    1
     9     9    10    2
    10    10    11    1
    11    11    12   ar
    12    12    13   ar
    13    13    14   ar
    14    14    15   ar
    15    15    16   ar
    16    16    17   ar
    17    17    18   ar
    18    18    19   ar
    19    19    20   ar
    20    20    21   ar
    21    21    22   ar
    22    22    23   ar
    23    23    24   ar
    24    14    25   ar
    25    25    26    1
    26     5     1    1
    27    26     9    1
    28     8     4   ar
    29    25    11   ar
    30    24    13   ar
    31    24    16   ar
    32    23    19   ar
    33     1    27    1
    34     1    28    1
    35     2    29    1
    36     3    30    1
    37     6    31    1
    38    10    32    1
    39    17    33    1
    40    18    34    1
    41    26    35    1
    42    26    36    1
