@<TRIPOS>MOLECULE
*****
 43 48 0 0 0
SMALL
GASTEIGER

@<TRIPOS>ATOM
      1 C          -5.9929   -0.0204   -1.6385 C.3     1  UNL1        0.0790
      2 O          -4.9557    0.9531   -1.5967 O.3     1  UNL1       -0.4914
      3 C          -3.7094    0.5360   -1.1928 C.ar    1  UNL1        0.1621
      4 C          -3.3364   -0.8070   -1.0490 C.ar    1  UNL1       -0.0080
      5 C          -2.0404   -1.1665   -0.6190 C.ar    1  UNL1       -0.0053
      6 C          -1.7176   -2.5568   -0.4871 C.ar    1  UNL1       -0.0019
      7 C          -2.4504   -3.7770   -0.7206 C.ar    1  UNL1       -0.0464
      8 C          -1.7096   -4.9126   -0.4665 C.ar    1  UNL1       -0.0231
      9 S          -0.1396   -4.5336    0.0854 S.2     1  UNL1       -0.0955
     10 C          -0.4456   -2.8677   -0.0429 C.ar    1  UNL1        0.0342
     11 C           0.5783   -1.7334    0.2907 C.ar    1  UNL1        0.0348
     12 S           2.1553   -1.9789    0.8632 S.2     1  UNL1       -0.0870
     13 C           2.4630   -0.2987    0.8922 C.ar    1  UNL1        0.0226
     14 C           3.7635    0.1838    1.3201 C.ar    1  UNL1        0.0169
     15 C           4.1524    0.2395    2.6769 C.ar    1  UNL1       -0.0513
     16 C           5.4151    0.7182    3.0973 C.ar    1  UNL1       -0.0590
     17 C           6.3913    1.1900    2.2004 C.ar    1  UNL1       -0.0335
     18 C           6.0582    1.1493    0.8221 C.ar    1  UNL1        0.1005
     19 N           6.8555    1.5353   -0.1876 N.ar    1  UNL1       -0.1908
     20 S           5.9957    1.2881   -1.5880 S.2     1  UNL1        0.1165
     21 N           4.5760    0.6821   -0.9785 N.ar    1  UNL1       -0.1902
     22 C           4.7127    0.6390    0.3612 C.ar    1  UNL1        0.1080
     23 C           1.3598    0.4246    0.4810 C.ar    1  UNL1       -0.0385
     24 C           0.2335   -0.4039    0.1297 C.ar    1  UNL1       -0.0013
     25 C          -1.0934   -0.1250   -0.3296 C.ar    1  UNL1       -0.0053
     26 C          -1.4851    1.2230   -0.5013 C.ar    1  UNL1       -0.0080
     27 C          -2.7719    1.5550   -0.9413 C.ar    1  UNL1        0.1621
     28 O          -3.2124    2.8416   -1.1429 O.3     1  UNL1       -0.4914
     29 C          -2.2443    3.8855   -1.1175 C.3     1  UNL1        0.0790
     30 H          -6.0917   -0.5482   -0.6814 H       1  UNL1        0.0660
     31 H          -5.8307   -0.7233   -2.4654 H       1  UNL1        0.0660
     32 H          -6.9358    0.5039   -1.8318 H       1  UNL1        0.0660
     33 H          -4.0508   -1.5902   -1.2757 H       1  UNL1        0.0662
     34 H          -3.4729   -3.8234   -1.0732 H       1  UNL1        0.0629
     35 H          -2.0167   -5.9438   -0.5747 H       1  UNL1        0.0694
     36 H           3.4448   -0.0901    3.4413 H       1  UNL1        0.0624
     37 H           5.6377    0.7316    4.1656 H       1  UNL1        0.0618
     38 H           7.3536    1.5573    2.5379 H       1  UNL1        0.0640
     39 H           1.3635    1.5070    0.4310 H       1  UNL1        0.0635
     40 H          -0.7731    2.0111   -0.2833 H       1  UNL1        0.0662
     41 H          -1.8635    4.0404   -0.1015 H       1  UNL1        0.0660
     42 H          -1.4293    3.6919   -1.8260 H       1  UNL1        0.0660
     43 H          -2.7408    4.8130   -1.4237 H       1  UNL1        0.0660
@<TRIPOS>BOND
     1     1     2    1
     2     2     3    1
     3     3     4   ar
     4     4     5   ar
     5     5     6   ar
     6     6     7   ar
     7     7     8   ar
     8     8     9   ar
     9     9    10   ar
    10    10    11   ar
    11    11    12   ar
    12    12    13   ar
    13    13    14    1
    14    14    15   ar
    15    15    16   ar
    16    16    17   ar
    17    17    18   ar
    18    18    19   ar
    19    19    20   ar
    20    20    21   ar
    21    21    22   ar
    22    13    23   ar
    23    23    24   ar
    24    24    25   ar
    25    25    26   ar
    26    26    27   ar
    27    27    28    1
    28    28    29    1
    29    27     3   ar
    30    25     5   ar
    31    10     6   ar
    32    24    11   ar
    33    22    14   ar
    34    22    18   ar
    35     1    30    1
    36     1    31    1
    37     1    32    1
    38     4    33    1
    39     7    34    1
    40     8    35    1
    41    15    36    1
    42    16    37    1
    43    17    38    1
    44    23    39    1
    45    26    40    1
    46    29    41    1
    47    29    42    1
    48    29    43    1
