@<TRIPOS>MOLECULE
*****
 39 41 0 0 0
SMALL
GASTEIGER

@<TRIPOS>ATOM
      1 C          -6.1049    0.7892   -0.0089 C.3     1  UNL1        0.0790
      2 O          -5.0552   -0.0136    0.5127 O.3     1  UNL1       -0.4914
      3 C          -3.7733    0.2721    0.1128 C.ar    1  UNL1        0.1635
      4 C          -3.4306    1.3008   -0.7725 C.ar    1  UNL1        0.0098
      5 C          -2.1146    1.5470   -1.1428 C.ar    1  UNL1        0.0797
      6 N          -1.8719    2.5399   -2.0031 N.ar    1  UNL1       -0.2352
      7 C          -0.5950    2.7363   -2.3470 C.ar    1  UNL1        0.1187
      8 N           0.4604    2.0510   -1.8971 N.ar    1  UNL1       -0.2203
      9 C           0.2109    1.0693   -1.0140 C.ar    1  UNL1        0.1301
     10 N           1.2942    0.3229   -0.5051 N.pl3   1  UNL1       -0.3244
     11 C           2.6078    0.7377   -0.9824 C.3     1  UNL1        0.0357
     12 C           3.6587   -0.1073   -0.2976 C.ar    1  UNL1       -0.0304
     13 C           3.8127   -1.4591   -0.6409 C.ar    1  UNL1       -0.0571
     14 C           4.7712   -2.2480   -0.0035 C.ar    1  UNL1       -0.0615
     15 C           5.5822   -1.6956    0.9861 C.ar    1  UNL1       -0.0617
     16 C           5.4341   -0.3558    1.3411 C.ar    1  UNL1       -0.0615
     17 C           4.4755    0.4353    0.7049 C.ar    1  UNL1       -0.0571
     18 C          -1.0990    0.7484   -0.6047 C.ar    1  UNL1        0.0438
     19 C          -1.4372   -0.3056    0.2820 C.ar    1  UNL1       -0.0038
     20 C          -2.7639   -0.5470    0.6422 C.ar    1  UNL1        0.1623
     21 O          -3.1712   -1.5403    1.4951 O.3     1  UNL1       -0.4914
     22 C          -2.1879   -2.4482    1.9716 C.3     1  UNL1        0.0790
     23 H          -7.0463    0.4237    0.4127 H       1  UNL1        0.0660
     24 H          -5.9897    1.8352    0.2933 H       1  UNL1        0.0660
     25 H          -6.1702    0.6953   -1.0978 H       1  UNL1        0.0660
     26 H          -4.1899    1.9441   -1.2060 H       1  UNL1        0.0677
     27 H          -0.3962    3.5311   -3.0578 H       1  UNL1        0.1048
     28 H           1.2612    0.3366    0.5103 H       1  UNL1        0.1478
     29 H           2.7917    1.7971   -0.7618 H       1  UNL1        0.0511
     30 H           2.6972    0.5991   -2.0675 H       1  UNL1        0.0511
     31 H           3.1766   -1.9001   -1.4061 H       1  UNL1        0.0621
     32 H           4.8830   -3.2935   -0.2783 H       1  UNL1        0.0618
     33 H           6.3290   -2.3102    1.4819 H       1  UNL1        0.0618
     34 H           6.0661    0.0733    2.1143 H       1  UNL1        0.0618
     35 H           4.3721    1.4783    0.9957 H       1  UNL1        0.0621
     36 H          -0.6382   -0.9313    0.6659 H       1  UNL1        0.0663
     37 H          -1.7062   -2.9809    1.1450 H       1  UNL1        0.0660
     38 H          -2.6934   -3.1913    2.5959 H       1  UNL1        0.0660
     39 H          -1.4497   -1.9359    2.5973 H       1  UNL1        0.0660
@<TRIPOS>BOND
     1     1     2    1
     2     2     3    1
     3     3     4   ar
     4     4     5   ar
     5     5     6   ar
     6     6     7   ar
     7     7     8   ar
     8     8     9   ar
     9     9    10    1
    10    10    11    1
    11    11    12    1
    12    12    13   ar
    13    13    14   ar
    14    14    15   ar
    15    15    16   ar
    16    16    17   ar
    17     9    18   ar
    18    18    19   ar
    19    19    20   ar
    20    20    21    1
    21    21    22    1
    22    20     3   ar
    23    18     5   ar
    24    17    12   ar
    25     1    23    1
    26     1    24    1
    27     1    25    1
    28     4    26    1
    29     7    27    1
    30    10    28    1
    31    11    29    1
    32    11    30    1
    33    13    31    1
    34    14    32    1
    35    15    33    1
    36    16    34    1
    37    17    35    1
    38    19    36    1
    39    22    37    1
    40    22    38    1
    41    22    39    1
