@<TRIPOS>MOLECULE
*****
 36 37 0 0 0
SMALL
GASTEIGER

@<TRIPOS>ATOM
      1 C          -4.1508    1.4617    1.5868 C.3     1  UNL1        0.0788
      2 O          -3.1622    0.8414    0.7746 O.3     1  UNL1       -0.4945
      3 C          -3.5044   -0.3284    0.1433 C.ar    1  UNL1        0.1273
      4 C          -4.6586   -1.0656    0.4395 C.ar    1  UNL1       -0.0183
      5 C          -4.9495   -2.2417   -0.2574 C.ar    1  UNL1       -0.0443
      6 C          -4.0878   -2.6862   -1.2541 C.ar    1  UNL1        0.0187
      7 BR         -4.4876   -4.2730   -2.2002 Br      1  UNL1       -0.0503
      8 C          -2.9318   -1.9709   -1.5573 C.ar    1  UNL1       -0.0371
      9 C          -2.6202   -0.7956   -0.8543 C.ar    1  UNL1        0.0178
     10 C          -1.3874   -0.0937   -1.2508 C.2     1  UNL1       -0.0462
     11 C          -0.4551    0.3127   -0.3762 C.2     1  UNL1        0.0008
     12 C           0.7678    0.9933   -0.8656 C.2     1  UNL1        0.2372
     13 O           1.0015    1.1680   -2.0543 O.2     1  UNL1       -0.2708
     14 N           1.6019    1.3870    0.1499 N.am    1  UNL1       -0.3077
     15 C           2.8928    1.9766   -0.1188 C.3     1  UNL1        0.0386
     16 C           3.9900    0.9664    0.0396 C.ar    1  UNL1       -0.0122
     17 C           4.7290    0.8589    1.2213 C.ar    1  UNL1       -0.0542
     18 C           5.7281   -0.1048    1.3246 C.ar    1  UNL1       -0.0433
     19 C           5.9523   -0.9370    0.2407 C.ar    1  UNL1        0.0276
     20 N           5.2547   -0.8705   -0.9123 N.ar    1  UNL1       -0.2629
     21 C           4.2888    0.0744   -0.9865 C.ar    1  UNL1        0.0322
     22 H          -4.3442    0.8699    2.4872 H       1  UNL1        0.0660
     23 H          -5.0732    1.6436    1.0251 H       1  UNL1        0.0660
     24 H          -3.7591    2.4323    1.9059 H       1  UNL1        0.0660
     25 H          -5.3546   -0.7528    1.2110 H       1  UNL1        0.0655
     26 H          -5.8507   -2.7992   -0.0150 H       1  UNL1        0.0630
     27 H          -2.2634   -2.3303   -2.3371 H       1  UNL1        0.0636
     28 H          -1.2474    0.0582   -2.3195 H       1  UNL1        0.0626
     29 H          -0.5695    0.1554    0.6883 H       1  UNL1        0.0669
     30 H           1.3895    1.1299    1.1029 H       1  UNL1        0.1493
     31 H           3.0262    2.7987    0.5932 H       1  UNL1        0.0512
     32 H           2.9216    2.4149   -1.1229 H       1  UNL1        0.0512
     33 H           4.5349    1.5219    2.0602 H       1  UNL1        0.0622
     34 H           6.3187   -0.2053    2.2281 H       1  UNL1        0.0633
     35 H           6.7211   -1.7036    0.2720 H       1  UNL1        0.0829
     36 H           3.7387    0.0936   -1.9256 H       1  UNL1        0.0833
@<TRIPOS>BOND
     1     1     2    1
     2     2     3    1
     3     3     4   ar
     4     4     5   ar
     5     5     6   ar
     6     6     7    1
     7     6     8   ar
     8     8     9   ar
     9     9    10    1
    10    10    11    2
    11    11    12    1
    12    12    13    2
    13    12    14   am
    14    14    15    1
    15    15    16    1
    16    16    17   ar
    17    17    18   ar
    18    18    19   ar
    19    19    20   ar
    20    20    21   ar
    21     9     3   ar
    22    21    16   ar
    23     1    22    1
    24     1    23    1
    25     1    24    1
    26     4    25    1
    27     5    26    1
    28     8    27    1
    29    10    28    1
    30    11    29    1
    31    14    30    1
    32    15    31    1
    33    15    32    1
    34    17    33    1
    35    18    34    1
    36    19    35    1
    37    21    36    1
