@<TRIPOS>MOLECULE
*****
 29 30 0 0 0
SMALL
GASTEIGER

@<TRIPOS>ATOM
      1 C           1.8337   -3.2128   -1.6876 C.3     1  UNL1        0.0789
      2 O           0.9824   -2.1107   -1.4002 O.3     1  UNL1       -0.4931
      3 C           1.4446   -1.1358   -0.5622 C.ar    1  UNL1        0.1469
      4 C           2.7268   -1.1287   -0.0009 C.ar    1  UNL1       -0.0169
      5 C           3.1332   -0.0825    0.8318 C.ar    1  UNL1       -0.0442
      6 C           2.2609    0.9663    1.1025 C.ar    1  UNL1        0.0200
      7 BR          2.8205    2.3844    2.2198 Br      1  UNL1       -0.0502
      8 C           0.9797    0.9820    0.5563 C.ar    1  UNL1       -0.0173
      9 C           0.5693   -0.0756   -0.2683 C.ar    1  UNL1        0.1534
     10 S          -1.0587   -0.1070   -0.9803 S.O2    1  UNL1        0.0887
     11 O          -1.7250   -1.3346   -0.5907 O.2     1  UNL1       -0.1475
     12 O          -0.9469    0.3198   -2.3628 O.2     1  UNL1       -0.1475
     13 N          -1.9516    1.1147   -0.2209 N.ar    1  UNL1       -0.2037
     14 C          -2.0847    2.3886   -0.7076 C.ar    1  UNL1        0.0488
     15 C          -2.7260    3.0748    0.2942 C.ar    1  UNL1        0.0476
     16 N          -2.9467    2.2608    1.3772 N.ar    1  UNL1       -0.2393
     17 C          -2.4762    1.0687    1.0493 C.ar    1  UNL1        0.1275
     18 C          -2.5099   -0.1285    1.9273 C.3     1  UNL1       -0.0047
     19 H           2.0839   -3.7662   -0.7766 H       1  UNL1        0.0660
     20 H           2.7362   -2.8858   -2.2140 H       1  UNL1        0.0660
     21 H           1.2889   -3.8917   -2.3507 H       1  UNL1        0.0660
     22 H           3.4414   -1.9230   -0.1953 H       1  UNL1        0.0655
     23 H           4.1344   -0.0951    1.2569 H       1  UNL1        0.0630
     24 H           0.3341    1.8245    0.7826 H       1  UNL1        0.0649
     25 H          -1.7351    2.6817   -1.6883 H       1  UNL1        0.0844
     26 H          -3.0319    4.1139    0.3013 H       1  UNL1        0.0845
     27 H          -2.8552    0.1501    2.9285 H       1  UNL1        0.0308
     28 H          -3.2046   -0.8777    1.5367 H       1  UNL1        0.0308
     29 H          -1.5176   -0.5746    2.0368 H       1  UNL1        0.0308
@<TRIPOS>BOND
     1     1     2    1
     2     2     3    1
     3     3     4   ar
     4     4     5   ar
     5     5     6   ar
     6     6     7    1
     7     6     8   ar
     8     8     9   ar
     9     9    10    1
    10    10    11    2
    11    10    12    2
    12    10    13    1
    13    13    14   ar
    14    14    15   ar
    15    15    16   ar
    16    16    17   ar
    17    17    18    1
    18     9     3   ar
    19    17    13   ar
    20     1    19    1
    21     1    20    1
    22     1    21    1
    23     4    22    1
    24     5    23    1
    25     8    24    1
    26    14    25    1
    27    15    26    1
    28    18    27    1
    29    18    28    1
    30    18    29    1
