@<TRIPOS>MOLECULE
*****
 34 35 0 0 0
SMALL
GASTEIGER

@<TRIPOS>ATOM
      1 C          -1.6263   -3.0611    0.1831 C.3     1  UNL1        0.0789
      2 O          -1.0728   -1.7627   -0.0540 O.3     1  UNL1       -0.4931
      3 C          -2.0209   -0.7877    0.1019 C.ar    1  UNL1        0.1464
      4 C          -3.0320   -0.6488   -0.8521 C.ar    1  UNL1       -0.0170
      5 C          -3.9684    0.3806   -0.7321 C.ar    1  UNL1       -0.0442
      6 C          -3.8826    1.2776    0.3330 C.ar    1  UNL1        0.0200
      7 BR         -5.1516    2.6699    0.4864 Br      1  UNL1       -0.0502
      8 C          -2.8665    1.1622    1.2788 C.ar    1  UNL1       -0.0178
      9 C          -1.9311    0.1286    1.1535 C.ar    1  UNL1        0.1477
     10 S          -0.6348   -0.0110    2.3538 S.O2    1  UNL1        0.0622
     11 O          -0.5990    1.2209    3.1127 O.2     1  UNL1       -0.1529
     12 O          -0.7911   -1.2957    2.9982 O.2     1  UNL1       -0.1529
     13 N           0.7634   -0.0671    1.4200 N.3     1  UNL1       -0.1855
     14 C           1.1188    1.1503    0.6868 C.3     1  UNL1        0.0425
     15 C           2.2898    0.8946   -0.2298 C.ar    1  UNL1       -0.0319
     16 C           3.5959    0.8797    0.2797 C.ar    1  UNL1       -0.0573
     17 C           4.6798    0.6190   -0.5596 C.ar    1  UNL1       -0.0615
     18 C           4.4681    0.3620   -1.9129 C.ar    1  UNL1       -0.0617
     19 C           3.1728    0.3599   -2.4276 C.ar    1  UNL1       -0.0615
     20 C           2.0868    0.6200   -1.5900 C.ar    1  UNL1       -0.0573
     21 H          -2.2277   -3.3867   -0.6716 H       1  UNL1        0.0660
     22 H          -0.7938   -3.7616    0.2984 H       1  UNL1        0.0660
     23 H          -2.2221   -3.0863    1.1025 H       1  UNL1        0.0660
     24 H          -3.0898   -1.3292   -1.6979 H       1  UNL1        0.0655
     25 H          -4.7554    0.4786   -1.4764 H       1  UNL1        0.0630
     26 H          -2.8039    1.8670    2.1054 H       1  UNL1        0.0649
     27 H           0.7796   -0.9185    0.8534 H       1  UNL1        0.1484
     28 H           1.3784    1.9505    1.3892 H       1  UNL1        0.0490
     29 H           0.2724    1.5035    0.0878 H       1  UNL1        0.0490
     30 H           3.7713    1.0649    1.3379 H       1  UNL1        0.0621
     31 H           5.6889    0.6115   -0.1557 H       1  UNL1        0.0618
     32 H           5.3131    0.1577   -2.5653 H       1  UNL1        0.0618
     33 H           3.0089    0.1521   -3.4819 H       1  UNL1        0.0618
     34 H           1.0819    0.6053   -2.0062 H       1  UNL1        0.0621
@<TRIPOS>BOND
     1     1     2    1
     2     2     3    1
     3     3     4   ar
     4     4     5   ar
     5     5     6   ar
     6     6     7    1
     7     6     8   ar
     8     8     9   ar
     9     9    10    1
    10    10    11    2
    11    10    12    2
    12    10    13    1
    13    13    14    1
    14    14    15    1
    15    15    16   ar
    16    16    17   ar
    17    17    18   ar
    18    18    19   ar
    19    19    20   ar
    20     9     3   ar
    21    20    15   ar
    22     1    21    1
    23     1    22    1
    24     1    23    1
    25     4    24    1
    26     5    25    1
    27     8    26    1
    28    13    27    1
    29    14    28    1
    30    14    29    1
    31    16    30    1
    32    17    31    1
    33    18    32    1
    34    19    33    1
    35    20    34    1
