@<TRIPOS>MOLECULE
*****
 43 44 0 0 0
SMALL
GASTEIGER

@<TRIPOS>ATOM
      1 C           6.3611   -1.0603   -0.2761 C.3     1  UNL1        0.0789
      2 O           4.9979   -1.2155    0.0959 O.3     1  UNL1       -0.4931
      3 C           4.2938   -0.1008    0.4512 C.ar    1  UNL1        0.1464
      4 C           4.8580    1.1742    0.5832 C.ar    1  UNL1       -0.0170
      5 C           4.0769    2.2627    0.9867 C.ar    1  UNL1       -0.0442
      6 C           2.7271    2.0816    1.2707 C.ar    1  UNL1        0.0200
      7 BR          1.6770    3.5516    1.8248 Br      1  UNL1       -0.0502
      8 C           2.1452    0.8248    1.1487 C.ar    1  UNL1       -0.0178
      9 C           2.9276   -0.2609    0.7283 C.ar    1  UNL1        0.1477
     10 S           2.1705   -1.8537    0.5352 S.O2    1  UNL1        0.0619
     11 O           2.3150   -2.5553    1.7915 O.2     1  UNL1       -0.1529
     12 O           2.5476   -2.4336   -0.7348 O.2     1  UNL1       -0.1529
     13 N           0.5148   -1.5080    0.4185 N.3     1  UNL1       -0.1898
     14 C          -0.0221   -1.1944   -0.9125 C.3     1  UNL1        0.0186
     15 C          -1.3295   -0.4107   -0.7841 C.3     1  UNL1       -0.0260
     16 C          -2.4905   -1.2901   -0.2959 C.3     1  UNL1        0.0003
     17 N          -3.7988   -0.6412   -0.1893 N.3     1  UNL1       -0.2979
     18 C          -4.3430   -0.1156   -1.4526 C.3     1  UNL1        0.0224
     19 C          -4.3918    1.4204   -1.5025 C.3     1  UNL1        0.0604
     20 O          -5.1527    2.0019   -0.4354 O.3     1  UNL1       -0.3772
     21 C          -5.1565    1.2056    0.7583 C.3     1  UNL1        0.0604
     22 C          -3.8947    0.3409    0.9034 C.3     1  UNL1        0.0224
     23 H           6.7392   -2.0420   -0.5771 H       1  UNL1        0.0660
     24 H           6.9627   -0.7176    0.5720 H       1  UNL1        0.0660
     25 H           6.4635   -0.3866   -1.1331 H       1  UNL1        0.0660
     26 H           5.9104    1.3565    0.3874 H       1  UNL1        0.0655
     27 H           4.5367    3.2435    1.0838 H       1  UNL1        0.0630
     28 H           1.0941    0.6936    1.3881 H       1  UNL1        0.0649
     29 H          -0.0158   -2.1384    1.0207 H       1  UNL1        0.1480
     30 H          -0.1811   -2.1203   -1.4748 H       1  UNL1        0.0442
     31 H           0.6927   -0.5717   -1.4619 H       1  UNL1        0.0442
     32 H          -1.5712    0.0001   -1.7710 H       1  UNL1        0.0290
     33 H          -1.1763    0.4395   -0.1104 H       1  UNL1        0.0290
     34 H          -2.2416   -1.7215    0.6814 H       1  UNL1        0.0427
     35 H          -2.5922   -2.1498   -0.9710 H       1  UNL1        0.0427
     36 H          -5.3711   -0.4906   -1.5333 H       1  UNL1        0.0449
     37 H          -3.8077   -0.5066   -2.3255 H       1  UNL1        0.0449
     38 H          -3.3807    1.8420   -1.4653 H       1  UNL1        0.0572
     39 H          -4.8444    1.7501   -2.4432 H       1  UNL1        0.0572
     40 H          -5.2429    1.8909    1.6077 H       1  UNL1        0.0572
     41 H          -6.0587    0.5826    0.7507 H       1  UNL1        0.0572
     42 H          -3.0269    1.0096    0.9099 H       1  UNL1        0.0449
     43 H          -3.9213   -0.1867    1.8630 H       1  UNL1        0.0449
@<TRIPOS>BOND
     1     1     2    1
     2     2     3    1
     3     3     4   ar
     4     4     5   ar
     5     5     6   ar
     6     6     7    1
     7     6     8   ar
     8     8     9   ar
     9     9    10    1
    10    10    11    2
    11    10    12    2
    12    10    13    1
    13    13    14    1
    14    14    15    1
    15    15    16    1
    16    16    17    1
    17    17    18    1
    18    18    19    1
    19    19    20    1
    20    20    21    1
    21    21    22    1
    22     9     3   ar
    23    22    17    1
    24     1    23    1
    25     1    24    1
    26     1    25    1
    27     4    26    1
    28     5    27    1
    29     8    28    1
    30    13    29    1
    31    14    30    1
    32    14    31    1
    33    15    32    1
    34    15    33    1
    35    16    34    1
    36    16    35    1
    37    18    36    1
    38    18    37    1
    39    19    38    1
    40    19    39    1
    41    21    40    1
    42    21    41    1
    43    22    42    1
    44    22    43    1
