@<TRIPOS>MOLECULE
*****
 29 30 0 0 0
SMALL
GASTEIGER

@<TRIPOS>ATOM
      1 C           5.2435   -0.1652   -0.8714 C.3     1  UNL1        0.0788
      2 O           4.2744    0.8106   -0.5103 O.3     1  UNL1       -0.4951
      3 C           3.0377    0.3500   -0.1510 C.ar    1  UNL1        0.1201
      4 C           2.6563   -0.9895   -0.0571 C.ar    1  UNL1       -0.0192
      5 C           1.3525   -1.3228    0.3271 C.ar    1  UNL1       -0.0462
      6 C           0.4196   -0.3170    0.6029 C.ar    1  UNL1        0.0375
      7 C          -0.9311   -0.7100    1.0686 C.2     1  UNL1        0.2528
      8 O          -1.0099   -1.5968    1.9194 O.2     1  UNL1       -0.2696
      9 N          -2.0570   -0.0923    0.5210 N.am    1  UNL1       -0.2381
     10 C          -3.3546   -0.3251    1.1142 C.3     1  UNL1        0.0231
     11 C          -4.3401   -0.1292   -0.0158 C.3     1  UNL1       -0.0284
     12 C          -3.6556    0.8904   -0.9046 C.3     1  UNL1        0.0260
     13 C          -2.1937    0.5682   -0.7146 C.2     1  UNL1        0.2221
     14 O          -1.3219    0.8912   -1.5043 O.2     1  UNL1       -0.2752
     15 C           0.8053    1.0237    0.5362 C.ar    1  UNL1       -0.0462
     16 C           2.1083    1.3504    0.1509 C.ar    1  UNL1       -0.0192
     17 H           6.1596    0.3622   -1.1544 H       1  UNL1        0.0660
     18 H           5.4825   -0.8156   -0.0236 H       1  UNL1        0.0660
     19 H           4.9142   -0.7486   -1.7377 H       1  UNL1        0.0660
     20 H           3.3474   -1.7986   -0.2678 H       1  UNL1        0.0654
     21 H           1.0674   -2.3689    0.4148 H       1  UNL1        0.0626
     22 H          -3.4344   -1.3207    1.5610 H       1  UNL1        0.0470
     23 H          -3.4962    0.4230    1.9024 H       1  UNL1        0.0470
     24 H          -5.3257    0.1953    0.3290 H       1  UNL1        0.0285
     25 H          -4.4666   -1.0703   -0.5656 H       1  UNL1        0.0285
     26 H          -3.9503    0.7760   -1.9505 H       1  UNL1        0.0359
     27 H          -3.8405    1.9152   -0.5685 H       1  UNL1        0.0359
     28 H           0.1060    1.8192    0.7754 H       1  UNL1        0.0626
     29 H           2.4031    2.3950    0.0846 H       1  UNL1        0.0654
@<TRIPOS>BOND
     1     1     2    1
     2     2     3    1
     3     3     4   ar
     4     4     5   ar
     5     5     6   ar
     6     6     7    1
     7     7     8    2
     8     7     9   am
     9     9    10    1
    10    10    11    1
    11    11    12    1
    12    12    13    1
    13    13    14    2
    14     6    15   ar
    15    15    16   ar
    16    16     3   ar
    17    13     9   am
    18     1    17    1
    19     1    18    1
    20     1    19    1
    21     4    20    1
    22     5    21    1
    23    10    22    1
    24    10    23    1
    25    11    24    1
    26    11    25    1
    27    12    26    1
    28    12    27    1
    29    15    28    1
    30    16    29    1
