@<TRIPOS>MOLECULE
*****
 35 36 0 0 0
SMALL
GASTEIGER

@<TRIPOS>ATOM
      1 C          -4.4477    2.4304   -1.3816 C.3     1  UNL1        0.0790
      2 O          -4.1859    1.3004   -0.5621 O.3     1  UNL1       -0.4915
      3 C          -2.9122    0.7885   -0.5655 C.ar    1  UNL1        0.1615
      4 C          -1.8358    1.3549   -1.2600 C.ar    1  UNL1       -0.0156
      5 C          -0.5701    0.7690   -1.1976 C.ar    1  UNL1       -0.0459
      6 C          -0.3776   -0.3773   -0.4246 C.ar    1  UNL1        0.0410
      7 C           0.9561   -1.0143   -0.3463 C.2     1  UNL1        0.2524
      8 O           1.0252   -2.1930   -0.6789 O.2     1  UNL1       -0.2696
      9 N           1.9921   -0.2637    0.2073 N.am    1  UNL1       -0.2452
     10 C           1.8136    0.9320    0.9871 C.3     1  UNL1        0.0415
     11 C           3.1787    1.1485    1.6081 C.3     1  UNL1        0.0584
     12 N           4.1176    0.3519    0.7934 N.2     1  UNL1       -0.2615
     13 C           3.3687   -0.4385    0.0874 C.2     1  UNL1        0.1583
     14 S           4.0253   -1.6032   -1.0103 S.3     1  UNL1       -0.0937
     15 C           5.7499   -1.6244   -0.4853 C.3     1  UNL1       -0.0109
     16 C          -1.4479   -0.9705    0.2517 C.ar    1  UNL1       -0.0042
     17 C          -2.7177   -0.3896    0.1887 C.ar    1  UNL1        0.1622
     18 O          -3.8245   -0.8835    0.8343 O.3     1  UNL1       -0.4914
     19 C          -3.7232   -2.1782    1.4118 C.3     1  UNL1        0.0790
     20 H          -3.8742    3.3009   -1.0467 H       1  UNL1        0.0660
     21 H          -5.5098    2.6753   -1.2845 H       1  UNL1        0.0660
     22 H          -4.2528    2.2089   -2.4361 H       1  UNL1        0.0660
     23 H          -1.9532    2.2488   -1.8640 H       1  UNL1        0.0655
     24 H           0.2524    1.2019   -1.7620 H       1  UNL1        0.0626
     25 H           1.0199    0.8175    1.7313 H       1  UNL1        0.0487
     26 H           1.5627    1.7607    0.3168 H       1  UNL1        0.0487
     27 H           3.4579    2.2066    1.6050 H       1  UNL1        0.0525
     28 H           3.2067    0.7868    2.6421 H       1  UNL1        0.0525
     29 H           5.8298   -1.8920    0.5720 H       1  UNL1        0.0345
     30 H           6.2194   -0.6513   -0.6535 H       1  UNL1        0.0345
     31 H           6.2932   -2.3716   -1.0703 H       1  UNL1        0.0345
     32 H          -1.2600   -1.8775    0.8177 H       1  UNL1        0.0663
     33 H          -3.4253   -2.9247    0.6679 H       1  UNL1        0.0660
     34 H          -3.0375   -2.1733    2.2652 H       1  UNL1        0.0660
     35 H          -4.7139   -2.4565    1.7839 H       1  UNL1        0.0660
@<TRIPOS>BOND
     1     1     2    1
     2     2     3    1
     3     3     4   ar
     4     4     5   ar
     5     5     6   ar
     6     6     7    1
     7     7     8    2
     8     7     9   am
     9     9    10    1
    10    10    11    1
    11    11    12    1
    12    12    13    2
    13    13    14    1
    14    14    15    1
    15     6    16   ar
    16    16    17   ar
    17    17    18    1
    18    18    19    1
    19    17     3   ar
    20    13     9    1
    21     1    20    1
    22     1    21    1
    23     1    22    1
    24     4    23    1
    25     5    24    1
    26    10    25    1
    27    10    26    1
    28    11    27    1
    29    11    28    1
    30    15    29    1
    31    15    30    1
    32    15    31    1
    33    16    32    1
    34    19    33    1
    35    19    34    1
    36    19    35    1
