@<TRIPOS>MOLECULE
*****
 39 41 0 0 0
SMALL
GASTEIGER

@<TRIPOS>ATOM
      1 C           7.6622    0.6641    0.4293 C.3     1  UNL1        0.0788
      2 O           6.6598   -0.0059    1.1839 O.3     1  UNL1       -0.4951
      3 C           5.3631    0.1810    0.7930 C.ar    1  UNL1        0.1201
      4 C           4.4169   -0.4878    1.5753 C.ar    1  UNL1       -0.0192
      5 C           3.0516   -0.3881    1.2909 C.ar    1  UNL1       -0.0462
      6 C           2.6230    0.3817    0.2041 C.ar    1  UNL1        0.0373
      7 C           1.1804    0.5253   -0.1460 C.2     1  UNL1        0.2483
      8 O           0.8026    1.5865   -0.6269 O.2     1  UNL1       -0.2699
      9 N           0.4079   -0.5946    0.0896 N.am    1  UNL1       -0.2802
     10 C          -0.9841   -0.7545   -0.1207 C.ar    1  UNL1        0.0558
     11 C          -1.8115    0.2624   -0.6045 C.ar    1  UNL1        0.0064
     12 C          -3.1841    0.0431   -0.7679 C.ar    1  UNL1        0.1638
     13 C          -3.7411   -1.2017   -0.4692 C.ar    1  UNL1        0.1634
     14 C          -2.9263   -2.2344   -0.0145 C.ar    1  UNL1        0.0038
     15 C          -1.5612   -2.0069    0.1698 C.ar    1  UNL1        0.0658
     16 CL         -0.5922   -3.3154    0.7639 Cl      1  UNL1       -0.0815
     17 O          -5.0542   -1.5109   -0.6928 O.3     1  UNL1       -0.4881
     18 C          -5.9426   -0.7036    0.0811 C.3     1  UNL1        0.0928
     19 C          -6.1846    0.6561   -0.5555 C.3     1  UNL1        0.0157
     20 C          -4.9432    1.5299   -0.4683 C.3     1  UNL1        0.0928
     21 O          -3.9043    1.0633   -1.3280 O.3     1  UNL1       -0.4881
     22 C           3.5679    1.0666   -0.5695 C.ar    1  UNL1       -0.0462
     23 C           4.9332    0.9627   -0.2796 C.ar    1  UNL1       -0.0192
     24 H           8.6332    0.4144    0.8677 H       1  UNL1        0.0660
     25 H           7.6684    0.3212   -0.6107 H       1  UNL1        0.0660
     26 H           7.5399    1.7507    0.4875 H       1  UNL1        0.0660
     27 H           4.7488   -1.0849    2.4222 H       1  UNL1        0.0654
     28 H           2.3450   -0.8920    1.9439 H       1  UNL1        0.0626
     29 H           0.8807   -1.4367    0.4005 H       1  UNL1        0.1552
     30 H          -1.4200    1.2383   -0.8732 H       1  UNL1        0.0674
     31 H          -3.3582   -3.2100    0.1892 H       1  UNL1        0.0670
     32 H          -6.8946   -1.2453    0.1190 H       1  UNL1        0.0697
     33 H          -5.5946   -0.6153    1.1192 H       1  UNL1        0.0697
     34 H          -7.0124    1.1537   -0.0388 H       1  UNL1        0.0331
     35 H          -6.4607    0.5206   -1.6077 H       1  UNL1        0.0331
     36 H          -5.1999    2.5377   -0.8140 H       1  UNL1        0.0697
     37 H          -4.5868    1.6370    0.5652 H       1  UNL1        0.0697
     38 H           3.2423    1.6842   -1.4050 H       1  UNL1        0.0626
     39 H           5.6295    1.5074   -0.9088 H       1  UNL1        0.0654
@<TRIPOS>BOND
     1     1     2    1
     2     2     3    1
     3     3     4   ar
     4     4     5   ar
     5     5     6   ar
     6     6     7    1
     7     7     8    2
     8     7     9   am
     9     9    10    1
    10    10    11   ar
    11    11    12   ar
    12    12    13   ar
    13    13    14   ar
    14    14    15   ar
    15    15    16    1
    16    13    17    1
    17    17    18    1
    18    18    19    1
    19    19    20    1
    20    20    21    1
    21     6    22   ar
    22    22    23   ar
    23    23     3   ar
    24    15    10   ar
    25    21    12    1
    26     1    24    1
    27     1    25    1
    28     1    26    1
    29     4    27    1
    30     5    28    1
    31     9    29    1
    32    11    30    1
    33    14    31    1
    34    18    32    1
    35    18    33    1
    36    19    34    1
    37    19    35    1
    38    20    36    1
    39    20    37    1
    40    22    38    1
    41    23    39    1
