@<TRIPOS>MOLECULE
*****
 36 37 0 0 0
SMALL
GASTEIGER

@<TRIPOS>ATOM
      1 C          -6.3119   -1.4519   -0.0581 C.3     1  UNL1        0.0788
      2 O          -5.4266   -0.4126    0.3424 O.3     1  UNL1       -0.4950
      3 C          -4.0925   -0.6144    0.1175 C.ar    1  UNL1        0.1236
      4 C          -3.5236   -1.7399   -0.4653 C.ar    1  UNL1       -0.0190
      5 C          -2.1378   -1.8088   -0.6329 C.ar    1  UNL1       -0.0426
      6 C          -1.2943   -0.7580   -0.2231 C.ar    1  UNL1        0.0788
      7 C           0.1814   -0.9603   -0.4620 C.2     1  UNL1        0.2528
      8 O           0.5498   -2.0072   -0.9891 O.2     1  UNL1       -0.2697
      9 N           1.0157    0.0548   -0.0671 N.am    1  UNL1       -0.2663
     10 C           2.4037    0.1428   -0.1618 C.ar    1  UNL1        0.1251
     11 C           3.2134   -0.8453   -0.7016 C.ar    1  UNL1       -0.0213
     12 C           4.5932   -0.6408   -0.7423 C.ar    1  UNL1       -0.0542
     13 C           5.1323    0.5469   -0.2543 C.ar    1  UNL1       -0.0322
     14 C           6.6067    0.7905   -0.2462 C.3     1  UNL1       -0.0383
     15 C           4.2448    1.4705    0.2797 C.ar    1  UNL1        0.0326
     16 N           2.9041    1.2972    0.3312 N.ar    1  UNL1       -0.2399
     17 C          -1.8724    0.3841    0.3684 C.ar    1  UNL1        0.1357
     18 O          -1.0334    1.3965    0.7607 O.3     1  UNL1       -0.4942
     19 C          -1.6083    2.5543    1.3581 C.3     1  UNL1        0.0788
     20 C          -3.2664    0.4376    0.5297 C.ar    1  UNL1        0.0225
     21 H          -6.2665   -1.6137   -1.1402 H       1  UNL1        0.0660
     22 H          -7.3303   -1.1368    0.1889 H       1  UNL1        0.0660
     23 H          -6.1073   -2.3775    0.4900 H       1  UNL1        0.0660
     24 H          -4.1203   -2.5814   -0.8013 H       1  UNL1        0.0654
     25 H          -1.7143   -2.7014   -1.0925 H       1  UNL1        0.0627
     26 H           0.6051    0.8779    0.3584 H       1  UNL1        0.1566
     27 H           2.8100   -1.7721   -1.0902 H       1  UNL1        0.0652
     28 H           5.2342   -1.4146   -1.1571 H       1  UNL1        0.0622
     29 H           7.0909    0.2851   -1.0885 H       1  UNL1        0.0278
     30 H           6.8268    1.8593   -0.3391 H       1  UNL1        0.0278
     31 H           7.0437    0.4196    0.6860 H       1  UNL1        0.0278
     32 H           4.5946    2.4109    0.6975 H       1  UNL1        0.0833
     33 H          -0.7926    3.2424    1.6004 H       1  UNL1        0.0660
     34 H          -2.2787    3.0663    0.6603 H       1  UNL1        0.0660
     35 H          -2.1196    2.3028    2.2929 H       1  UNL1        0.0660
     36 H          -3.7536    1.2972    0.9800 H       1  UNL1        0.0691
@<TRIPOS>BOND
     1     1     2    1
     2     2     3    1
     3     3     4   ar
     4     4     5   ar
     5     5     6   ar
     6     6     7    1
     7     7     8    2
     8     7     9   am
     9     9    10    1
    10    10    11   ar
    11    11    12   ar
    12    12    13   ar
    13    13    14    1
    14    13    15   ar
    15    15    16   ar
    16     6    17   ar
    17    17    18    1
    18    18    19    1
    19    17    20   ar
    20    20     3   ar
    21    16    10   ar
    22     1    21    1
    23     1    22    1
    24     1    23    1
    25     4    24    1
    26     5    25    1
    27     9    26    1
    28    11    27    1
    29    12    28    1
    30    14    29    1
    31    14    30    1
    32    14    31    1
    33    15    32    1
    34    19    33    1
    35    19    34    1
    36    19    35    1
    37    20    36    1
