@<TRIPOS>MOLECULE
*****
 47 54 0 0 0
SMALL
GASTEIGER

@<TRIPOS>ATOM
      1 SI          7.7390    0.7793   -0.5277 Si      1  UNL1        0.0000
      2 C           6.6761   -0.7002   -1.1015 C.2     1  UNL1        0.0000
      3 C           5.3736   -0.5301   -0.7844 C.2     1  UNL1        0.0000
      4 C           5.0654    0.6914   -0.0940 C.ar    1  UNL1        0.0000
      5 C           6.1653    1.5651    0.1442 C.ar    1  UNL1        0.0000
      6 C           5.8539    2.7335    0.7659 C.ar    1  UNL1        0.0000
      7 S           4.1596    2.7812    1.0727 S.2     1  UNL1        0.0000
      8 C           3.8815    1.2104    0.3827 C.ar    1  UNL1        0.0000
      9 C           2.5538    0.6574    0.3813 C.ar    1  UNL1        0.0000
     10 C           2.1541   -0.6679    0.4350 C.ar    1  UNL1        0.0000
     11 C           0.7290   -0.6990    0.4204 C.ar    1  UNL1        0.0000
     12 C           0.3365    0.6248    0.3571 C.ar    1  UNL1        0.0000
     13 O           1.4273    1.4397    0.3529 O.2     1  UNL1        0.0000
     14 C          -1.0035    1.0371    0.2980 C.ar    1  UNL1        0.0000
     15 C          -1.2910    2.3993    0.3239 C.ar    1  UNL1        0.0000
     16 N          -2.5384    2.9070    0.2775 N.ar    1  UNL1        0.0000
     17 C          -3.5556    2.0742    0.0593 C.ar    1  UNL1        0.0000
     18 C          -4.8199    2.7052   -0.0544 C.ar    1  UNL1        0.0000
     19 C          -6.0350    2.0805   -0.3958 C.ar    1  UNL1        0.0000
     20 C          -5.8249    0.7472   -0.7038 C.ar    1  UNL1        0.0000
     21 C          -6.8347   -0.0357   -1.2071 C.ar    1  UNL1        0.0000
     22 S          -6.2460   -1.5794   -1.6618 S.2     1  UNL1        0.0000
     23 C          -4.6426   -1.1758   -1.1909 C.ar    1  UNL1        0.0000
     24 C          -4.5632    0.0555   -0.5776 C.ar    1  UNL1        0.0000
     25 C          -3.3519    0.6534   -0.0773 C.ar    1  UNL1        0.0000
     26 C          -2.0347    0.0839    0.2220 C.ar    1  UNL1        0.0000
     27 C          -1.6560   -1.2959    0.4853 C.ar    1  UNL1        0.0000
     28 C          -2.5720   -2.3205    0.8171 C.ar    1  UNL1        0.0000
     29 C          -2.1867   -3.6510    1.0254 C.ar    1  UNL1        0.0000
     30 C          -0.8498   -4.0096    0.9477 C.ar    1  UNL1        0.0000
     31 C           0.1065   -3.0288    0.7140 C.ar    1  UNL1        0.0000
     32 C          -0.2816   -1.6845    0.5211 C.ar    1  UNL1        0.0000
     33 H           8.3263    1.4937   -1.6878 H       1  UNL1        0.0000
     34 H           8.7024    0.3637    0.5215 H       1  UNL1        0.0000
     35 H           7.1223   -1.5303   -1.6253 H       1  UNL1        0.0000
     36 H           4.6147   -1.2545   -1.0531 H       1  UNL1        0.0000
     37 H           6.4905    3.5597    1.0524 H       1  UNL1        0.0000
     38 H           2.8154   -1.5184    0.5117 H       1  UNL1        0.0000
     39 H          -0.5044    3.1456    0.4138 H       1  UNL1        0.0000
     40 H          -4.8471    3.7840    0.1167 H       1  UNL1        0.0000
     41 H          -6.9679    2.6198   -0.4869 H       1  UNL1        0.0000
     42 H          -7.8721    0.2188   -1.3776 H       1  UNL1        0.0000
     43 H          -3.8581   -1.8852   -1.4095 H       1  UNL1        0.0000
     44 H          -3.6228   -2.0877    0.9725 H       1  UNL1        0.0000
     45 H          -2.9386   -4.3993    1.2648 H       1  UNL1        0.0000
     46 H          -0.5490   -5.0411    1.1100 H       1  UNL1        0.0000
     47 H           1.1545   -3.3169    0.7135 H       1  UNL1        0.0000
@<TRIPOS>BOND
     1     1     2    1
     2     2     3    2
     3     3     4    1
     4     4     5   ar
     5     5     6   ar
     6     6     7   ar
     7     7     8   ar
     8     8     9    1
     9     9    10   ar
    10    10    11   ar
    11    11    12   ar
    12    12    13   ar
    13    12    14   ar
    14    14    15   ar
    15    15    16   ar
    16    16    17   ar
    17    17    18   ar
    18    18    19   ar
    19    19    20   ar
    20    20    21   ar
    21    21    22   ar
    22    22    23   ar
    23    23    24   ar
    24    24    25   ar
    25    25    26   ar
    26    26    27   ar
    27    27    28   ar
    28    28    29   ar
    29    29    30   ar
    30    30    31   ar
    31    31    32   ar
    32     5     1    1
    33    13     9   ar
    34    26    14   ar
    35    32    27   ar
    36     8     4   ar
    37    32    11   ar
    38    25    17   ar
    39    24    20   ar
    40     1    33    1
    41     1    34    1
    42     2    35    1
    43     3    36    1
    44     6    37    1
    45    10    38    1
    46    15    39    1
    47    18    40    1
    48    19    41    1
    49    21    42    1
    50    23    43    1
    51    28    44    1
    52    29    45    1
    53    30    46    1
    54    31    47    1
