@<TRIPOS>MOLECULE
*****
 37 38 0 0 0
SMALL
GASTEIGER

@<TRIPOS>ATOM
      1 C           7.1846   -0.4755    0.7062 C.3     1  UNL1        0.0788
      2 O           6.5906   -0.0079   -0.4983 O.3     1  UNL1       -0.4951
      3 C           5.2271   -0.0604   -0.5793 C.ar    1  UNL1        0.1201
      4 C           4.3630   -0.5361    0.4080 C.ar    1  UNL1       -0.0192
      5 C           2.9776   -0.5335    0.1966 C.ar    1  UNL1       -0.0461
      6 C           2.4474   -0.0472   -1.0052 C.ar    1  UNL1        0.0384
      7 C           0.9839   -0.0243   -1.2783 C.2     1  UNL1        0.2601
      8 O           0.5528    0.0314   -2.4282 O.2     1  UNL1       -0.2687
      9 N           0.1469   -0.0331   -0.1767 N.am    1  UNL1       -0.2304
     10 N          -1.2148    0.2276   -0.4212 N.am    1  UNL1       -0.2339
     11 C          -1.8398    1.1289    0.4201 C.2     1  UNL1        0.2334
     12 O          -1.3312    1.5178    1.4718 O.2     1  UNL1       -0.2739
     13 C          -3.2072    1.5785   -0.0539 C.3     1  UNL1        0.0505
     14 C          -4.3018    0.6158    0.3351 C.ar    1  UNL1       -0.0385
     15 C          -4.9582   -0.1527   -0.6368 C.ar    1  UNL1       -0.0567
     16 C          -5.9661   -1.0471   -0.2679 C.ar    1  UNL1       -0.0431
     17 C          -6.3215   -1.1777    1.0729 C.ar    1  UNL1        0.0410
     18 CL         -7.5627   -2.2801    1.5248 Cl      1  UNL1       -0.0835
     19 C          -5.6777   -0.4216    2.0492 C.ar    1  UNL1       -0.0431
     20 C          -4.6704    0.4729    1.6814 C.ar    1  UNL1       -0.0567
     21 C           3.3158    0.4150   -1.9995 C.ar    1  UNL1       -0.0461
     22 C           4.6960    0.4109   -1.7823 C.ar    1  UNL1       -0.0192
     23 H           8.2687   -0.3616    0.6105 H       1  UNL1        0.0660
     24 H           6.9739   -1.5385    0.8630 H       1  UNL1        0.0660
     25 H           6.8612    0.1231    1.5642 H       1  UNL1        0.0660
     26 H           4.7340   -0.9234    1.3517 H       1  UNL1        0.0654
     27 H           2.3361   -0.9383    0.9746 H       1  UNL1        0.0626
     28 H           0.4804    0.2679    0.7388 H       1  UNL1        0.1731
     29 H          -1.4940    0.1454   -1.3992 H       1  UNL1        0.1728
     30 H          -3.4165    2.5670    0.3729 H       1  UNL1        0.0407
     31 H          -3.1813    1.7217   -1.1411 H       1  UNL1        0.0407
     32 H          -4.6941   -0.0628   -1.6885 H       1  UNL1        0.0621
     33 H          -6.4688   -1.6376   -1.0293 H       1  UNL1        0.0632
     34 H          -5.9520   -0.5236    3.0957 H       1  UNL1        0.0632
     35 H          -4.1698    1.0560    2.4537 H       1  UNL1        0.0621
     36 H           2.9243    0.7827   -2.9460 H       1  UNL1        0.0626
     37 H           5.3635    0.7764   -2.5595 H       1  UNL1        0.0654
@<TRIPOS>BOND
     1     1     2    1
     2     2     3    1
     3     3     4   ar
     4     4     5   ar
     5     5     6   ar
     6     6     7    1
     7     7     8    2
     8     7     9   am
     9     9    10    1
    10    10    11   am
    11    11    12    2
    12    11    13    1
    13    13    14    1
    14    14    15   ar
    15    15    16   ar
    16    16    17   ar
    17    17    18    1
    18    17    19   ar
    19    19    20   ar
    20     6    21   ar
    21    21    22   ar
    22    22     3   ar
    23    20    14   ar
    24     1    23    1
    25     1    24    1
    26     1    25    1
    27     4    26    1
    28     5    27    1
    29     9    28    1
    30    10    29    1
    31    13    30    1
    32    13    31    1
    33    15    32    1
    34    16    33    1
    35    19    34    1
    36    20    35    1
    37    21    36    1
    38    22    37    1
