@<TRIPOS>MOLECULE
*****
 28 29 0 0 0
SMALL
GASTEIGER

@<TRIPOS>ATOM
      1 C           5.1622    0.7098    0.1536 C.3     1  UNL1        0.0788
      2 O           4.1458    0.6129    1.1434 O.3     1  UNL1       -0.4951
      3 C           2.8642    0.4359    0.7025 C.ar    1  UNL1        0.1201
      4 C           1.9071    0.3404    1.7149 C.ar    1  UNL1       -0.0193
      5 C           0.5566    0.1585    1.4057 C.ar    1  UNL1       -0.0494
      6 C           0.1460    0.0782    0.0709 C.ar    1  UNL1       -0.0021
      7 C          -1.3078   -0.1236   -0.2395 C.2     1  UNL1        0.0661
      8 C          -1.8041    0.4074   -1.5715 C.3     1  UNL1       -0.0201
      9 N          -2.0416   -0.7015    0.6685 N.2     1  UNL1       -0.1688
     10 N          -3.3330   -1.0250    0.3955 N.ar    1  UNL1       -0.2069
     11 C          -4.3645   -0.9467    1.2934 C.ar    1  UNL1        0.1414
     12 N          -5.4813   -1.3783    0.7521 N.ar    1  UNL1       -0.1363
     13 N          -5.1795   -1.8209   -0.5137 N.ar    1  UNL1       -0.1363
     14 C          -3.8896   -1.6450   -0.6941 C.ar    1  UNL1        0.1414
     15 C           1.1051    0.1617   -0.9449 C.ar    1  UNL1       -0.0494
     16 C           2.4585    0.3430   -0.6290 C.ar    1  UNL1       -0.0193
     17 H           5.2302   -0.2119   -0.4337 H       1  UNL1        0.0660
     18 H           5.0024    1.5797   -0.4921 H       1  UNL1        0.0660
     19 H           6.1180    0.8481    0.6681 H       1  UNL1        0.0660
     20 H           2.2160    0.4056    2.7559 H       1  UNL1        0.0654
     21 H          -0.1661    0.0845    2.2151 H       1  UNL1        0.0625
     22 H          -1.7589   -0.3828   -2.3253 H       1  UNL1        0.0293
     23 H          -1.1958    1.2520   -1.9082 H       1  UNL1        0.0293
     24 H          -2.8271    0.7826   -1.4836 H       1  UNL1        0.0293
     25 H          -4.2372   -0.5602    2.2925 H       1  UNL1        0.1067
     26 H          -3.3240   -1.9546   -1.5578 H       1  UNL1        0.1067
     27 H           0.8286    0.0716   -1.9917 H       1  UNL1        0.0625
     28 H           3.1697    0.4020   -1.4467 H       1  UNL1        0.0654
@<TRIPOS>BOND
     1     1     2    1
     2     2     3    1
     3     3     4   ar
     4     4     5   ar
     5     5     6   ar
     6     6     7    1
     7     7     8    1
     8     7     9    2
     9     9    10    1
    10    10    11   ar
    11    11    12   ar
    12    12    13   ar
    13    13    14   ar
    14     6    15   ar
    15    15    16   ar
    16    16     3   ar
    17    14    10   ar
    18     1    17    1
    19     1    18    1
    20     1    19    1
    21     4    20    1
    22     5    21    1
    23     8    22    1
    24     8    23    1
    25     8    24    1
    26    11    25    1
    27    14    26    1
    28    15    27    1
    29    16    28    1
