@<TRIPOS>MOLECULE
*****
 36 37 0 0 0
SMALL
GASTEIGER

@<TRIPOS>ATOM
      1 C           4.9784    2.7432    0.6517 C.3     1  UNL1        0.0788
      2 O           4.3220    2.0469   -0.3997 O.3     1  UNL1       -0.4951
      3 C           3.2692    1.2479   -0.0497 C.ar    1  UNL1        0.1201
      4 C           2.6534    0.5913   -1.1156 C.ar    1  UNL1       -0.0196
      5 C           1.5645   -0.2586   -0.9008 C.ar    1  UNL1       -0.0533
      6 C           1.0710   -0.4746    0.3924 C.ar    1  UNL1       -0.0265
      7 C          -0.1217   -1.3812    0.6608 C.3     1  UNL1        0.0587
      8 C          -0.0439   -2.7320   -0.0590 C.3     1  UNL1        0.0673
      9 C          -1.0326   -3.6969    0.5210 C.2     1  UNL1        0.3068
     10 O          -2.0705   -4.0801    0.0095 O.2     1  UNL1       -0.2509
     11 O          -0.6646   -4.1575    1.7337 O.3     1  UNL1       -0.4806
     12 N          -1.3678   -0.6456    0.4812 N.am    1  UNL1       -0.3036
     13 C          -1.9348   -0.3177   -0.7331 C.2     1  UNL1        0.2512
     14 O          -1.4960   -0.7429   -1.7981 O.2     1  UNL1       -0.2696
     15 C          -3.0889    0.5735   -0.6675 C.ar    1  UNL1        0.0738
     16 C          -3.8355    1.0340   -1.7379 C.ar    1  UNL1       -0.0425
     17 C          -4.8994    1.8935   -1.3397 C.ar    1  UNL1       -0.0540
     18 C          -4.9349    2.0660    0.0250 C.ar    1  UNL1       -0.0236
     19 S          -3.6924    1.1961    0.8134 S.2     1  UNL1       -0.0921
     20 C           1.6894    0.1998    1.4581 C.ar    1  UNL1       -0.0533
     21 C           2.7809    1.0500    1.2403 C.ar    1  UNL1       -0.0196
     22 H           5.4268    2.0461    1.3673 H       1  UNL1        0.0660
     23 H           5.7878    3.3316    0.2088 H       1  UNL1        0.0660
     24 H           4.2960    3.4389    1.1510 H       1  UNL1        0.0660
     25 H           3.0195    0.7464   -2.1278 H       1  UNL1        0.0654
     26 H           1.1012   -0.7371   -1.7617 H       1  UNL1        0.0622
     27 H          -0.1079   -1.6013    1.7375 H       1  UNL1        0.0554
     28 H           0.9535   -3.1778    0.0493 H       1  UNL1        0.0399
     29 H          -0.2233   -2.6661   -1.1358 H       1  UNL1        0.0399
     30 H          -1.3778   -4.7904    1.9658 H       1  UNL1        0.2951
     31 H          -1.7198   -0.1357    1.2808 H       1  UNL1        0.1496
     32 H          -3.6191    0.7580   -2.7643 H       1  UNL1        0.0630
     33 H          -5.6013    2.3596   -2.0207 H       1  UNL1        0.0623
     34 H          -5.6318    2.6620    0.5986 H       1  UNL1        0.0693
     35 H           1.3275    0.0686    2.4759 H       1  UNL1        0.0622
     36 H           3.2230    1.5421    2.0999 H       1  UNL1        0.0654
@<TRIPOS>BOND
     1     1     2    1
     2     2     3    1
     3     3     4   ar
     4     4     5   ar
     5     5     6   ar
     6     6     7    1
     7     7     8    1
     8     8     9    1
     9     9    10    2
    10     9    11    1
    11     7    12    1
    12    12    13   am
    13    13    14    2
    14    13    15    1
    15    15    16   ar
    16    16    17   ar
    17    17    18   ar
    18    18    19   ar
    19     6    20   ar
    20    20    21   ar
    21    21     3   ar
    22    19    15   ar
    23     1    22    1
    24     1    23    1
    25     1    24    1
    26     4    25    1
    27     5    26    1
    28     7    27    1
    29     8    28    1
    30     8    29    1
    31    11    30    1
    32    12    31    1
    33    16    32    1
    34    17    33    1
    35    18    34    1
    36    20    35    1
    37    21    36    1
