@<TRIPOS>MOLECULE
*****
 41 42 0 0 0
SMALL
GASTEIGER

@<TRIPOS>ATOM
      1 C          -4.8735    1.0861    1.3341 C.3     1  UNL1        0.0789
      2 O          -3.5832    0.7468    0.8404 O.3     1  UNL1       -0.4933
      3 C          -3.5337   -0.0347   -0.2923 C.ar    1  UNL1        0.1412
      4 C          -4.6500   -0.5140   -0.9823 C.ar    1  UNL1       -0.0179
      5 C          -4.4845   -1.3022   -2.1240 C.ar    1  UNL1       -0.0553
      6 C          -3.2052   -1.6290   -2.5830 C.ar    1  UNL1       -0.0485
      7 C          -3.0276   -2.4473   -3.8283 C.3     1  UNL1       -0.0396
      8 C          -2.0848   -1.1355   -1.8991 C.ar    1  UNL1       -0.0340
      9 C          -2.2376   -0.3464   -0.7562 C.ar    1  UNL1        0.0758
     10 N          -1.1541    0.1766   -0.0153 N.am    1  UNL1       -0.2825
     11 C           0.2003    0.0300   -0.2475 C.2     1  UNL1        0.2185
     12 O           0.7179   -0.6038   -1.1602 O.2     1  UNL1       -0.2754
     13 C           1.0214    0.7532    0.8063 C.3     1  UNL1        0.0370
     14 C           2.5179    0.6860    0.4941 C.3     1  UNL1        0.0072
     15 N           3.3099    1.4383    1.4898 N.3     1  UNL1       -0.3019
     16 C           4.6877    1.6558    1.0154 C.3     1  UNL1       -0.0011
     17 C           5.4513    0.3857    1.3534 C.3     1  UNL1       -0.0390
     18 C           4.6984   -0.2207    2.5282 C.3     1  UNL1       -0.0390
     19 C           3.4942    0.6870    2.7430 C.3     1  UNL1       -0.0011
     20 H          -4.7367    1.7030    2.2275 H       1  UNL1        0.0660
     21 H          -5.4307    0.1914    1.6305 H       1  UNL1        0.0660
     22 H          -5.4325    1.6795    0.6032 H       1  UNL1        0.0660
     23 H          -5.6626   -0.2928   -0.6634 H       1  UNL1        0.0655
     24 H          -5.3642   -1.6614   -2.6542 H       1  UNL1        0.0621
     25 H          -2.1274   -3.0673   -3.7622 H       1  UNL1        0.0278
     26 H          -2.9431   -1.7897   -4.6989 H       1  UNL1        0.0278
     27 H          -3.8763   -3.1231   -3.9773 H       1  UNL1        0.0278
     28 H          -1.0982   -1.3817   -2.2798 H       1  UNL1        0.0640
     29 H          -1.4442    0.7327    0.7838 H       1  UNL1        0.1549
     30 H           0.7998    0.2908    1.7743 H       1  UNL1        0.0371
     31 H           0.6956    1.8001    0.8415 H       1  UNL1        0.0371
     32 H           2.6652    1.1393   -0.4954 H       1  UNL1        0.0431
     33 H           2.8485   -0.3571    0.4106 H       1  UNL1        0.0431
     34 H           4.7521    1.9154   -0.0469 H       1  UNL1        0.0426
     35 H           5.1161    2.4999    1.5707 H       1  UNL1        0.0426
     36 H           6.4960    0.5956    1.6036 H       1  UNL1        0.0278
     37 H           5.4416   -0.3098    0.5061 H       1  UNL1        0.0278
     38 H           5.3240   -0.2685    3.4255 H       1  UNL1        0.0278
     39 H           4.3826   -1.2412    2.2835 H       1  UNL1        0.0278
     40 H           3.7191    1.4039    3.5430 H       1  UNL1        0.0426
     41 H           2.6108    0.1291    3.0679 H       1  UNL1        0.0426
@<TRIPOS>BOND
     1     1     2    1
     2     2     3    1
     3     3     4   ar
     4     4     5   ar
     5     5     6   ar
     6     6     7    1
     7     6     8   ar
     8     8     9   ar
     9     9    10    1
    10    10    11   am
    11    11    12    2
    12    11    13    1
    13    13    14    1
    14    14    15    1
    15    15    16    1
    16    16    17    1
    17    17    18    1
    18    18    19    1
    19     9     3   ar
    20    19    15    1
    21     1    20    1
    22     1    21    1
    23     1    22    1
    24     4    23    1
    25     5    24    1
    26     7    25    1
    27     7    26    1
    28     7    27    1
    29     8    28    1
    30    10    29    1
    31    13    30    1
    32    13    31    1
    33    14    32    1
    34    14    33    1
    35    16    34    1
    36    16    35    1
    37    17    36    1
    38    17    37    1
    39    18    38    1
    40    18    39    1
    41    19    40    1
    42    19    41    1
