@<TRIPOS>MOLECULE
*****
 41 42 0 0 0
SMALL
GASTEIGER

@<TRIPOS>ATOM
      1 C          -6.7296    2.4351   -0.0867 C.3     1  UNL1        0.0790
      2 O          -5.9649    1.2997    0.2913 O.3     1  UNL1       -0.4915
      3 C          -4.6793    1.2112   -0.1825 C.ar    1  UNL1        0.1615
      4 C          -4.0756    2.1604   -1.0119 C.ar    1  UNL1       -0.0157
      5 C          -2.7576    1.9856   -1.4438 C.ar    1  UNL1       -0.0509
      6 C          -2.0189    0.8685   -1.0452 C.ar    1  UNL1       -0.0212
      7 C          -0.6448    0.7174   -1.5412 C.2     1  UNL1       -0.0496
      8 C           0.3725    0.2649   -0.7916 C.2     1  UNL1        0.0010
      9 C           1.7408    0.1632   -1.3771 C.2     1  UNL1        0.2411
     10 O           1.9597    0.5005   -2.5328 O.2     1  UNL1       -0.2705
     11 N           2.6464   -0.3381   -0.4680 N.am    1  UNL1       -0.2812
     12 C           4.0341   -0.5802   -0.6463 C.ar    1  UNL1        0.0477
     13 C           4.6878   -0.3121   -1.8557 C.ar    1  UNL1       -0.0397
     14 C           6.0564   -0.5583   -2.0061 C.ar    1  UNL1       -0.0600
     15 C           6.7969   -1.0770   -0.9503 C.ar    1  UNL1       -0.0609
     16 C           6.1693   -1.3522    0.2628 C.ar    1  UNL1       -0.0460
     17 C           4.7936   -1.1088    0.4257 C.ar    1  UNL1        0.0800
     18 C           4.1441   -1.4123    1.7313 C.2     1  UNL1        0.3386
     19 O           2.9611   -1.2559    1.9864 O.2     1  UNL1       -0.2451
     20 O           4.9933   -1.8935    2.6563 O.3     1  UNL1       -0.4771
     21 C          -2.6293   -0.0937   -0.2283 C.ar    1  UNL1       -0.0092
     22 C          -3.9507    0.0704    0.2097 C.ar    1  UNL1        0.1620
     23 O          -4.6171   -0.8205    1.0158 O.3     1  UNL1       -0.4914
     24 C          -3.9333   -2.0036    1.4017 C.3     1  UNL1        0.0790
     25 H          -6.8745    2.4707   -1.1714 H       1  UNL1        0.0660
     26 H          -6.2742    3.3595    0.2834 H       1  UNL1        0.0660
     27 H          -7.7165    2.3429    0.3769 H       1  UNL1        0.0660
     28 H          -4.6019    3.0490   -1.3432 H       1  UNL1        0.0655
     29 H          -2.3108    2.7393   -2.0896 H       1  UNL1        0.0625
     30 H          -0.4741    1.0237   -2.5723 H       1  UNL1        0.0625
     31 H           0.2354   -0.0171    0.2448 H       1  UNL1        0.0670
     32 H           2.2922   -0.5736    0.4595 H       1  UNL1        0.1551
     33 H           4.1591    0.0939   -2.7130 H       1  UNL1        0.0636
     34 H           6.5396   -0.3409   -2.9562 H       1  UNL1        0.0618
     35 H           7.8606   -1.2669   -1.0712 H       1  UNL1        0.0618
     36 H           6.7646   -1.7581    1.0776 H       1  UNL1        0.0626
     37 H           4.4390   -2.0424    3.4509 H       1  UNL1        0.2954
     38 H          -2.0618   -0.9754    0.0483 H       1  UNL1        0.0661
     39 H          -3.6684   -2.6100    0.5293 H       1  UNL1        0.0660
     40 H          -4.6128   -2.5952    2.0227 H       1  UNL1        0.0660
     41 H          -3.0504   -1.7701    2.0058 H       1  UNL1        0.0660
@<TRIPOS>BOND
     1     1     2    1
     2     2     3    1
     3     3     4   ar
     4     4     5   ar
     5     5     6   ar
     6     6     7    1
     7     7     8    2
     8     8     9    1
     9     9    10    2
    10     9    11   am
    11    11    12    1
    12    12    13   ar
    13    13    14   ar
    14    14    15   ar
    15    15    16   ar
    16    16    17   ar
    17    17    18    1
    18    18    19    2
    19    18    20    1
    20     6    21   ar
    21    21    22   ar
    22    22    23    1
    23    23    24    1
    24    22     3   ar
    25    17    12   ar
    26     1    25    1
    27     1    26    1
    28     1    27    1
    29     4    28    1
    30     5    29    1
    31     7    30    1
    32     8    31    1
    33    11    32    1
    34    13    33    1
    35    14    34    1
    36    15    35    1
    37    16    36    1
    38    20    37    1
    39    21    38    1
    40    24    39    1
    41    24    40    1
    42    24    41    1
