@<TRIPOS>MOLECULE
*****
 46 48 0 0 0
SMALL
GASTEIGER

@<TRIPOS>ATOM
      1 C           3.2077   -4.2960    1.1718 C.3     1  UNL1        0.0788
      2 O           2.7386   -3.4623    0.1203 O.3     1  UNL1       -0.4947
      3 C           1.6001   -2.7374    0.3545 C.ar    1  UNL1        0.1265
      4 C           0.7120   -2.9829    1.4090 C.ar    1  UNL1       -0.0190
      5 C          -0.4459   -2.2134    1.5574 C.ar    1  UNL1       -0.0496
      6 C          -0.7259   -1.1999    0.6426 C.ar    1  UNL1       -0.0049
      7 C          -1.9553   -0.4013    0.8114 C.2     1  UNL1        0.0526
      8 N          -2.2611    0.5615   -0.0014 N.2     1  UNL1       -0.1918
      9 N          -3.4433    1.2136    0.2509 N.pl3   1  UNL1       -0.2512
     10 C          -3.5822    2.5203   -0.3994 C.3     1  UNL1        0.0531
     11 C          -4.9291    3.1519   -0.0399 C.3     1  UNL1        0.0649
     12 O          -6.0637    2.3578   -0.4285 O.3     1  UNL1       -0.3766
     13 C          -5.7628    0.9634   -0.5932 C.3     1  UNL1        0.0649
     14 C          -4.6966    0.4524    0.3829 C.3     1  UNL1        0.0531
     15 C           0.1482   -0.9518   -0.4178 C.ar    1  UNL1       -0.0432
     16 C           1.3227   -1.7096   -0.5675 C.ar    1  UNL1        0.0318
     17 C           2.2656   -1.4031   -1.7119 C.3     1  UNL1        0.1180
     18 O           3.5506   -0.9621   -1.2659 O.3     1  UNL1       -0.4873
     19 C           3.7114    0.3251   -0.8422 C.ar    1  UNL1        0.1211
     20 C           2.8168    1.3786   -1.0275 C.ar    1  UNL1       -0.0185
     21 C           3.1201    2.6542   -0.5366 C.ar    1  UNL1       -0.0399
     22 C           4.3217    2.8773    0.1318 C.ar    1  UNL1        0.0412
     23 CL          4.6895    4.4466    0.7323 Cl      1  UNL1       -0.0835
     24 C           5.2268    1.8363    0.3118 C.ar    1  UNL1       -0.0399
     25 C           4.9194    0.5650   -0.1782 C.ar    1  UNL1       -0.0185
     26 H           2.5439   -5.1547    1.3144 H       1  UNL1        0.0660
     27 H           3.3334   -3.7334    2.1031 H       1  UNL1        0.0660
     28 H           4.1898   -4.6805    0.8802 H       1  UNL1        0.0660
     29 H           0.8898   -3.7754    2.1289 H       1  UNL1        0.0654
     30 H          -1.1191   -2.4191    2.3854 H       1  UNL1        0.0625
     31 H          -2.5950   -0.6534    1.6762 H       1  UNL1        0.0851
     32 H          -3.5144    2.3620   -1.4821 H       1  UNL1        0.0503
     33 H          -2.7521    3.1569   -0.0773 H       1  UNL1        0.0503
     34 H          -5.0318    4.1295   -0.5210 H       1  UNL1        0.0576
     35 H          -4.9982    3.3087    1.0428 H       1  UNL1        0.0576
     36 H          -6.6960    0.4080   -0.4568 H       1  UNL1        0.0576
     37 H          -5.4401    0.8105   -1.6298 H       1  UNL1        0.0576
     38 H          -4.5160   -0.6142    0.2173 H       1  UNL1        0.0503
     39 H          -5.0342    0.6005    1.4144 H       1  UNL1        0.0503
     40 H          -0.0869   -0.1611   -1.1271 H       1  UNL1        0.0629
     41 H           1.8330   -0.7084   -2.4414 H       1  UNL1        0.0749
     42 H           2.4256   -2.3308   -2.2757 H       1  UNL1        0.0749
     43 H           1.8779    1.2528   -1.5532 H       1  UNL1        0.0654
     44 H           2.4132    3.4668   -0.6822 H       1  UNL1        0.0633
     45 H           6.1673    2.0024    0.8289 H       1  UNL1        0.0633
     46 H           5.6244   -0.2511   -0.0370 H       1  UNL1        0.0654
@<TRIPOS>BOND
     1     1     2    1
     2     2     3    1
     3     3     4   ar
     4     4     5   ar
     5     5     6   ar
     6     6     7    1
     7     7     8    2
     8     8     9    1
     9     9    10    1
    10    10    11    1
    11    11    12    1
    12    12    13    1
    13    13    14    1
    14     6    15   ar
    15    15    16   ar
    16    16    17    1
    17    17    18    1
    18    18    19    1
    19    19    20   ar
    20    20    21   ar
    21    21    22   ar
    22    22    23    1
    23    22    24   ar
    24    24    25   ar
    25    16     3   ar
    26    25    19   ar
    27    14     9    1
    28     1    26    1
    29     1    27    1
    30     1    28    1
    31     4    29    1
    32     5    30    1
    33     7    31    1
    34    10    32    1
    35    10    33    1
    36    11    34    1
    37    11    35    1
    38    13    36    1
    39    13    37    1
    40    14    38    1
    41    14    39    1
    42    15    40    1
    43    17    41    1
    44    17    42    1
    45    20    43    1
    46    21    44    1
    47    24    45    1
    48    25    46    1
