@<TRIPOS>MOLECULE
*****
 38 41 0 0 0
SMALL
GASTEIGER

@<TRIPOS>ATOM
      1 C           6.3644    1.2363    1.4499 C.3     1  UNL1        0.0788
      2 O           5.8576   -0.0717    1.2190 O.3     1  UNL1       -0.4951
      3 C           4.5346   -0.1727    0.8886 C.ar    1  UNL1        0.1201
      4 C           3.6289    0.8831    0.7924 C.ar    1  UNL1       -0.0193
      5 C           2.2936    0.6374    0.4446 C.ar    1  UNL1       -0.0477
      6 C           1.8409   -0.6667    0.1954 C.ar    1  UNL1        0.0170
      7 C           0.4371   -0.9503   -0.1795 C.2     1  UNL1        0.1487
      8 C          -0.5721   -0.3715    0.5028 C.2     1  UNL1        0.0002
      9 C          -2.0213   -0.6439    0.1719 C.3     1  UNL1        0.1480
     10 C          -2.7726    0.5467   -0.4108 C.ar    1  UNL1        0.0334
     11 S          -2.2116    1.2974   -1.8537 S.2     1  UNL1       -0.0977
     12 C          -3.4897    2.4223   -1.8505 C.ar    1  UNL1       -0.0237
     13 C          -4.3351    2.2370   -0.7824 C.ar    1  UNL1       -0.0514
     14 C          -3.9345    1.1494    0.0618 C.ar    1  UNL1       -0.0367
     15 C          -4.6871    0.7362    1.2861 C.3     1  UNL1       -0.0388
     16 N          -2.0618   -1.8732   -0.5965 N.pl3   1  UNL1       -0.0982
     17 N          -3.1424   -2.2607   -1.3789 N.pl3   1  UNL1       -0.1011
     18 N          -2.6644   -2.8845   -2.5217 N.2     1  UNL1        0.0302
     19 N          -1.3961   -2.9283   -2.4831 N.2     1  UNL1        0.0667
     20 C          -1.0040   -2.1859   -1.3942 C.cat   1  UNL1        0.4663
     21 N           0.2229   -1.8024   -1.2435 N.2     1  UNL1       -0.0682
     22 C           2.7633   -1.7171    0.2783 C.ar    1  UNL1       -0.0477
     23 C           4.0946   -1.4714    0.6277 C.ar    1  UNL1       -0.0193
     24 H           7.4293    1.1456    1.6848 H       1  UNL1        0.0660
     25 H           6.2731    1.8597    0.5543 H       1  UNL1        0.0660
     26 H           5.8728    1.7037    2.3095 H       1  UNL1        0.0660
     27 H           3.9266    1.9102    0.9732 H       1  UNL1        0.0654
     28 H           1.6147    1.4819    0.3522 H       1  UNL1        0.0626
     29 H          -0.3812    0.2921    1.3394 H       1  UNL1        0.0644
     30 H          -2.4972   -0.8840    1.1318 H       1  UNL1        0.0795
     31 H          -3.5631    3.1666   -2.6320 H       1  UNL1        0.0693
     32 H          -5.2083    2.8570   -0.6129 H       1  UNL1        0.0626
     33 H          -5.5842    1.3478    1.4270 H       1  UNL1        0.0278
     34 H          -5.0012   -0.3095    1.2065 H       1  UNL1        0.0278
     35 H          -4.0588    0.8481    2.1755 H       1  UNL1        0.0278
     36 H          -3.8110   -1.5262   -1.6161 H       1  UNL1        0.2125
     37 H           2.4489   -2.7374    0.0676 H       1  UNL1        0.0626
     38 H           4.7943   -2.3012    0.6891 H       1  UNL1        0.0654
@<TRIPOS>BOND
     1     1     2    1
     2     2     3    1
     3     3     4   ar
     4     4     5   ar
     5     5     6   ar
     6     6     7    1
     7     7     8    2
     8     8     9    1
     9     9    10    1
    10    10    11   ar
    11    11    12   ar
    12    12    13   ar
    13    13    14   ar
    14    14    15    1
    15     9    16    1
    16    16    17    1
    17    17    18    1
    18    18    19    2
    19    19    20    1
    20    20    21    2
    21     6    22   ar
    22    22    23   ar
    23    23     3   ar
    24    21     7    1
    25    14    10   ar
    26    20    16    1
    27     1    24    1
    28     1    25    1
    29     1    26    1
    30     4    27    1
    31     5    28    1
    32     8    29    1
    33     9    30    1
    34    12    31    1
    35    13    32    1
    36    15    33    1
    37    15    34    1
    38    15    35    1
    39    17    36    1
    40    22    37    1
    41    23    38    1
