@<TRIPOS>MOLECULE
*****
 42 44 0 0 0
SMALL
GASTEIGER

@<TRIPOS>ATOM
      1 C          -6.6029    2.9558    0.4447 C.3     1  UNL1        0.0790
      2 O          -6.1178    1.6773    0.0603 O.3     1  UNL1       -0.4915
      3 C          -4.7576    1.5003    0.0096 C.ar    1  UNL1        0.1615
      4 C          -3.8202    2.4956    0.3001 C.ar    1  UNL1       -0.0157
      5 C          -2.4529    2.2211    0.2194 C.ar    1  UNL1       -0.0491
      6 C          -2.0083    0.9504   -0.1556 C.ar    1  UNL1        0.0032
      7 C          -0.5502    0.6979   -0.2342 C.2     1  UNL1        0.0914
      8 N           0.3406    1.5519    0.1613 N.2     1  UNL1       -0.0881
      9 O           1.6071    0.9584   -0.0439 O.2     1  UNL1       -0.3804
     10 C           1.4385   -0.1436   -0.9373 C.3     1  UNL1        0.2088
     11 C           2.4290   -1.2640   -0.6266 C.2     1  UNL1        0.2572
     12 O           2.1517   -2.4539   -0.7622 O.2     1  UNL1       -0.2716
     13 N           3.6799   -0.8288   -0.2610 N.am    1  UNL1       -0.3051
     14 C           4.7711   -1.7468   -0.0459 C.3     1  UNL1        0.0698
     15 C           5.8803   -1.0236    0.6178 C.ar    1  UNL1        0.1218
     16 C           6.4414   -1.0958    1.8762 C.ar    1  UNL1       -0.0192
     17 C           7.4745   -0.1284    1.9094 C.ar    1  UNL1       -0.0236
     18 C           7.4771    0.4730    0.6731 C.ar    1  UNL1        0.0921
     19 O           6.5119   -0.0616   -0.1181 O.2     1  UNL1       -0.4662
     20 C           0.0034   -0.5787   -0.7645 C.3     1  UNL1        0.0417
     21 C          -2.9404   -0.0538   -0.4429 C.ar    1  UNL1       -0.0073
     22 C          -4.3136    0.2140   -0.3626 C.ar    1  UNL1        0.1621
     23 O          -5.2985   -0.7060   -0.6281 O.3     1  UNL1       -0.4914
     24 C          -4.9042   -2.0298   -0.9581 C.3     1  UNL1        0.0790
     25 H          -6.2936    3.7265   -0.2689 H       1  UNL1        0.0660
     26 H          -7.6964    2.9151    0.4357 H       1  UNL1        0.0660
     27 H          -6.2885    3.2083    1.4626 H       1  UNL1        0.0660
     28 H          -4.1180    3.4968    0.5933 H       1  UNL1        0.0655
     29 H          -1.7391    3.0099    0.4510 H       1  UNL1        0.0625
     30 H           1.6286    0.2096   -1.9580 H       1  UNL1        0.0863
     31 H           3.8687    0.1680   -0.2268 H       1  UNL1        0.1492
     32 H           4.4221   -2.5875    0.5630 H       1  UNL1        0.0542
     33 H           5.0866   -2.1370   -1.0191 H       1  UNL1        0.0542
     34 H           6.1377   -1.7627    2.6714 H       1  UNL1        0.0652
     35 H           8.1347    0.1047    2.7329 H       1  UNL1        0.0649
     36 H           8.0698    1.2569    0.2224 H       1  UNL1        0.1029
     37 H          -0.1246   -1.3655   -0.0144 H       1  UNL1        0.0371
     38 H          -0.4479   -0.8825   -1.7118 H       1  UNL1        0.0371
     39 H          -2.5925   -1.0410   -0.7209 H       1  UNL1        0.0662
     40 H          -4.3327   -2.0495   -1.8917 H       1  UNL1        0.0660
     41 H          -4.3424   -2.4910   -0.1392 H       1  UNL1        0.0660
     42 H          -5.8121   -2.6209   -1.1121 H       1  UNL1        0.0660
@<TRIPOS>BOND
     1     1     2    1
     2     2     3    1
     3     3     4   ar
     4     4     5   ar
     5     5     6   ar
     6     6     7    1
     7     7     8    2
     8     8     9    1
     9     9    10    1
    10    10    11    1
    11    11    12    2
    12    11    13   am
    13    13    14    1
    14    14    15    1
    15    15    16   ar
    16    16    17   ar
    17    17    18   ar
    18    18    19   ar
    19    10    20    1
    20     6    21   ar
    21    21    22   ar
    22    22    23    1
    23    23    24    1
    24    22     3   ar
    25    20     7    1
    26    19    15   ar
    27     1    25    1
    28     1    26    1
    29     1    27    1
    30     4    28    1
    31     5    29    1
    32    10    30    1
    33    13    31    1
    34    14    32    1
    35    14    33    1
    36    16    34    1
    37    17    35    1
    38    18    36    1
    39    20    37    1
    40    20    38    1
    41    21    39    1
    42    24    40    1
    43    24    41    1
    44    24    42    1
