@<TRIPOS>MOLECULE
*****
 50 52 0 0 0
SMALL
GASTEIGER

@<TRIPOS>ATOM
      1 C          -8.1420    0.9228   -1.5462 C.3     1  UNL1        0.0790
      2 O          -7.3329   -0.2025   -1.2374 O.3     1  UNL1       -0.4915
      3 C          -6.0528    0.0319   -0.8018 C.ar    1  UNL1        0.1615
      4 C          -5.5000    1.3006   -0.6175 C.ar    1  UNL1       -0.0157
      5 C          -4.1818    1.4427   -0.1668 C.ar    1  UNL1       -0.0488
      6 C          -3.3800    0.3255    0.1173 C.ar    1  UNL1        0.0058
      7 C          -1.9908    0.4592    0.5972 C.ar    1  UNL1        0.0935
      8 C          -1.5361    1.5162    1.3744 C.ar    1  UNL1       -0.0307
      9 C          -0.2002    1.5466    1.7771 C.ar    1  UNL1       -0.0181
     10 C           0.6512    0.5239    1.3954 C.ar    1  UNL1        0.1412
     11 N           1.9964    0.4911    1.7751 N.pl3   1  UNL1       -0.3274
     12 C           2.7677    1.6640    1.3559 C.3     1  UNL1        0.0142
     13 C           4.2770    1.3831    1.4657 C.3     1  UNL1       -0.0162
     14 C           4.9115    0.4251    0.4668 C.2     1  UNL1       -0.0720
     15 C           4.2920   -0.1018   -0.6074 C.2     1  UNL1       -0.0847
     16 C           4.9561   -1.0129   -1.6015 C.3     1  UNL1       -0.0345
     17 C           6.4784   -1.0323   -1.4823 C.3     1  UNL1       -0.0493
     18 C           6.9067   -1.0973   -0.0230 C.3     1  UNL1       -0.0491
     19 C           6.3617    0.0957    0.7655 C.3     1  UNL1       -0.0317
     20 N           0.1821   -0.4997    0.6604 N.ar    1  UNL1       -0.1338
     21 N          -1.1376   -0.5308    0.2536 N.ar    1  UNL1       -0.1475
     22 C          -3.9515   -0.9474   -0.0813 C.ar    1  UNL1       -0.0071
     23 C          -5.2692   -1.1052   -0.5346 C.ar    1  UNL1        0.1621
     24 O          -5.8783   -2.3192   -0.7399 O.3     1  UNL1       -0.4914
     25 C          -5.0903   -3.4889   -0.5686 C.3     1  UNL1        0.0790
     26 H          -9.1143    0.5527   -1.8854 H       1  UNL1        0.0660
     27 H          -8.3134    1.5413   -0.6592 H       1  UNL1        0.0660
     28 H          -7.7077    1.5106   -2.3616 H       1  UNL1        0.0660
     29 H          -6.0654    2.2040   -0.8196 H       1  UNL1        0.0655
     30 H          -3.7871    2.4508   -0.0589 H       1  UNL1        0.0625
     31 H          -2.2040    2.3072    1.6967 H       1  UNL1        0.0641
     32 H           0.1557    2.3553    2.4053 H       1  UNL1        0.0653
     33 H           2.3676   -0.3654    1.3594 H       1  UNL1        0.1475
     34 H           2.5138    1.9724    0.3338 H       1  UNL1        0.0465
     35 H           2.5307    2.5036    2.0207 H       1  UNL1        0.0465
     36 H           4.8026    2.3425    1.3730 H       1  UNL1        0.0325
     37 H           4.4793    1.0082    2.4778 H       1  UNL1        0.0325
     38 H           3.2499    0.1190   -0.8247 H       1  UNL1        0.0572
     39 H           4.5595   -2.0251   -1.4584 H       1  UNL1        0.0307
     40 H           4.6830   -0.7023   -2.6164 H       1  UNL1        0.0307
     41 H           6.8965   -0.1293   -1.9451 H       1  UNL1        0.0268
     42 H           6.8819   -1.8887   -2.0341 H       1  UNL1        0.0268
     43 H           8.0000   -1.1176    0.0486 H       1  UNL1        0.0268
     44 H           6.5411   -2.0308    0.4235 H       1  UNL1        0.0268
     45 H           6.9679    0.9836    0.5456 H       1  UNL1        0.0310
     46 H           6.4832   -0.1191    1.8341 H       1  UNL1        0.0310
     47 H          -3.3381   -1.8182    0.1361 H       1  UNL1        0.0662
     48 H          -5.7157   -4.3520   -0.8164 H       1  UNL1        0.0660
     49 H          -4.7710   -3.5994    0.4728 H       1  UNL1        0.0660
     50 H          -4.2332   -3.4938   -1.2502 H       1  UNL1        0.0660
@<TRIPOS>BOND
     1     1     2    1
     2     2     3    1
     3     3     4   ar
     4     4     5   ar
     5     5     6   ar
     6     6     7    1
     7     7     8   ar
     8     8     9   ar
     9     9    10   ar
    10    10    11    1
    11    11    12    1
    12    12    13    1
    13    13    14    1
    14    14    15    2
    15    15    16    1
    16    16    17    1
    17    17    18    1
    18    18    19    1
    19    10    20   ar
    20    20    21   ar
    21     6    22   ar
    22    22    23   ar
    23    23    24    1
    24    24    25    1
    25    23     3   ar
    26    21     7   ar
    27    19    14    1
    28     1    26    1
    29     1    27    1
    30     1    28    1
    31     4    29    1
    32     5    30    1
    33     8    31    1
    34     9    32    1
    35    11    33    1
    36    12    34    1
    37    12    35    1
    38    13    36    1
    39    13    37    1
    40    15    38    1
    41    16    39    1
    42    16    40    1
    43    17    41    1
    44    17    42    1
    45    18    43    1
    46    18    44    1
    47    19    45    1
    48    19    46    1
    49    22    47    1
    50    25    48    1
    51    25    49    1
    52    25    50    1
