@<TRIPOS>MOLECULE
*****
 31 33 0 0 0
SMALL
GASTEIGER

@<TRIPOS>ATOM
      1 C          -4.6608    2.2598   -0.3364 C.3     1  UNL1        0.0790
      2 O          -4.1644    0.9499   -0.1031 O.3     1  UNL1       -0.4915
      3 C          -2.8026    0.7779   -0.0789 C.ar    1  UNL1        0.1615
      4 C          -1.8734    1.8058   -0.2687 C.ar    1  UNL1       -0.0156
      5 C          -0.5024    1.5361   -0.2270 C.ar    1  UNL1       -0.0474
      6 C          -0.0458    0.2350    0.0051 C.ar    1  UNL1        0.0230
      7 C           1.4181   -0.0652    0.0518 C.ar    1  UNL1        0.1654
      8 N           1.8266   -1.2728    0.2675 N.ar    1  UNL1       -0.2025
      9 C           3.1665   -1.5680    0.3139 C.ar    1  UNL1        0.1878
     10 S           3.6531   -3.1643    0.5993 S.2     1  UNL1       -0.0105
     11 N           4.0465   -0.5267    0.1217 N.ar    1  UNL1       -0.2734
     12 C           5.4300   -0.5456    0.1182 C.ar    1  UNL1        0.0207
     13 C           5.9924    0.6490   -0.1000 C.ar    1  UNL1       -0.0043
     14 S           4.7916    1.8875   -0.3172 S.2     1  UNL1       -0.0576
     15 C           3.5094    0.7098   -0.0984 C.ar    1  UNL1        0.1812
     16 N           2.2617    0.9923   -0.1430 N.ar    1  UNL1       -0.2030
     17 C          -0.9737   -0.7988    0.1959 C.ar    1  UNL1       -0.0056
     18 C          -2.3483   -0.5366    0.1555 C.ar    1  UNL1        0.1622
     19 O          -3.3235   -1.4878    0.3317 O.3     1  UNL1       -0.4914
     20 C          -2.9074   -2.8252    0.5702 C.3     1  UNL1        0.0790
     21 H          -5.7539    2.2108   -0.3221 H       1  UNL1        0.0660
     22 H          -4.3580    2.6274   -1.3224 H       1  UNL1        0.0660
     23 H          -4.3490    2.9477    0.4564 H       1  UNL1        0.0660
     24 H          -2.1817    2.8297   -0.4516 H       1  UNL1        0.0655
     25 H           0.1994    2.3534   -0.3777 H       1  UNL1        0.0626
     26 H           5.9782   -1.4645    0.2810 H       1  UNL1        0.0819
     27 H           7.0550    0.8470   -0.1411 H       1  UNL1        0.0709
     28 H          -0.6026   -1.8028    0.3749 H       1  UNL1        0.0662
     29 H          -2.3330   -2.9006    1.4993 H       1  UNL1        0.0660
     30 H          -3.8059   -3.4392    0.6851 H       1  UNL1        0.0660
     31 H          -2.3419   -3.2206   -0.2800 H       1  UNL1        0.0660
@<TRIPOS>BOND
     1     1     2    1
     2     2     3    1
     3     3     4   ar
     4     4     5   ar
     5     5     6   ar
     6     6     7    1
     7     7     8   ar
     8     8     9   ar
     9     9    10    2
    10     9    11   ar
    11    11    12   ar
    12    12    13   ar
    13    13    14   ar
    14    14    15   ar
    15    15    16   ar
    16     6    17   ar
    17    17    18   ar
    18    18    19    1
    19    19    20    1
    20    18     3   ar
    21    16     7   ar
    22    15    11   ar
    23     1    21    1
    24     1    22    1
    25     1    23    1
    26     4    24    1
    27     5    25    1
    28    12    26    1
    29    13    27    1
    30    17    28    1
    31    20    29    1
    32    20    30    1
    33    20    31    1
