@<TRIPOS>MOLECULE
*****
 49 56 0 0 0
SMALL
GASTEIGER

@<TRIPOS>ATOM
      1 SI         -7.2506   -0.5137   -0.5716 Si      1  UNL1        0.0000
      2 C          -5.8622   -1.1002   -1.7496 C.2     1  UNL1        0.0000
      3 C          -4.6419   -0.7435   -1.2917 C.2     1  UNL1        0.0000
      4 C          -4.6472   -0.0170   -0.0546 C.ar    1  UNL1        0.0000
      5 C          -5.9180    0.2268    0.5330 C.ar    1  UNL1        0.0000
      6 C          -5.8863    0.9057    1.7113 C.ar    1  UNL1        0.0000
      7 S          -4.2485    1.2601    2.1236 S.2     1  UNL1        0.0000
      8 C          -3.6186    0.4991    0.6984 C.ar    1  UNL1        0.0000
      9 C          -2.1875    0.4939    0.4722 C.ar    1  UNL1        0.0000
     10 C          -1.2273   -0.1223    1.3047 C.ar    1  UNL1        0.0000
     11 C           0.2296   -0.1549    1.1174 C.ar    1  UNL1        0.0000
     12 C           1.0956   -0.7443    2.0977 C.ar    1  UNL1        0.0000
     13 C           0.6043   -1.2797    3.3253 C.ar    1  UNL1        0.0000
     14 C           1.4209   -1.8360    4.3090 C.ar    1  UNL1        0.0000
     15 C           2.7795   -1.8771    4.1067 C.ar    1  UNL1        0.0000
     16 C           3.3033   -1.3645    2.9217 C.ar    1  UNL1        0.0000
     17 C           2.5058   -0.7917    1.8878 C.ar    1  UNL1        0.0000
     18 C           3.0827   -0.2995    0.6668 C.ar    1  UNL1        0.0000
     19 C           4.4860   -0.3727    0.4077 C.ar    1  UNL1        0.0000
     20 C           5.0589    0.0322   -0.8102 C.ar    1  UNL1        0.0000
     21 C           6.3778    0.0608   -1.3378 C.ar    1  UNL1        0.0000
     22 C           6.2985    0.5367   -2.6271 C.ar    1  UNL1        0.0000
     23 N           4.9791    0.7905   -2.8969 N.ar    1  UNL1        0.0000
     24 C           4.2101    0.5024   -1.7931 C.ar    1  UNL1        0.0000
     25 C           2.8319    0.6087   -1.5856 C.ar    1  UNL1        0.0000
     26 C           2.2494    0.2637   -0.3335 C.ar    1  UNL1        0.0000
     27 C           0.8385    0.4175   -0.0615 C.ar    1  UNL1        0.0000
     28 C          -0.1522    1.1189   -0.8378 C.ar    1  UNL1        0.0000
     29 C           0.0134    1.9919   -1.8897 C.ar    1  UNL1        0.0000
     30 O          -1.1903    2.4614   -2.3314 O.2     1  UNL1        0.0000
     31 C          -2.1481    1.9354   -1.5219 C.ar    1  UNL1        0.0000
     32 C          -1.5585    1.1360   -0.5770 C.ar    1  UNL1        0.0000
     33 H          -8.1165    0.4945   -1.2319 H       1  UNL1        0.0000
     34 H          -7.9620   -1.6688    0.0299 H       1  UNL1        0.0000
     35 H          -6.0933   -1.6481   -2.6488 H       1  UNL1        0.0000
     36 H          -3.7219   -0.9878   -1.8112 H       1  UNL1        0.0000
     37 H          -6.6969    1.2149    2.3571 H       1  UNL1        0.0000
     38 H          -1.6563   -0.6245    2.1700 H       1  UNL1        0.0000
     39 H          -0.4535   -1.2674    3.5679 H       1  UNL1        0.0000
     40 H           0.9867   -2.2253    5.2256 H       1  UNL1        0.0000
     41 H           3.4381   -2.3022    4.8586 H       1  UNL1        0.0000
     42 H           4.3830   -1.4313    2.8301 H       1  UNL1        0.0000
     43 H           5.1807   -0.7650    1.1398 H       1  UNL1        0.0000
     44 H           7.2845   -0.2422   -0.8311 H       1  UNL1        0.0000
     45 H           7.0616    0.7100   -3.3739 H       1  UNL1        0.0000
     46 H           4.6206    1.1474   -3.7719 H       1  UNL1        0.0000
     47 H           2.2241    0.9086   -2.4264 H       1  UNL1        0.0000
     48 H           0.8541    2.4130   -2.4184 H       1  UNL1        0.0000
     49 H          -3.1614    2.2493   -1.7313 H       1  UNL1        0.0000
@<TRIPOS>BOND
     1     1     2    1
     2     2     3    2
     3     3     4    1
     4     4     5   ar
     5     5     6   ar
     6     6     7   ar
     7     7     8   ar
     8     8     9    1
     9     9    10   ar
    10    10    11   ar
    11    11    12   ar
    12    12    13   ar
    13    13    14   ar
    14    14    15   ar
    15    15    16   ar
    16    16    17   ar
    17    17    18   ar
    18    18    19   ar
    19    19    20   ar
    20    20    21   ar
    21    21    22   ar
    22    22    23   ar
    23    23    24   ar
    24    24    25   ar
    25    25    26   ar
    26    26    27   ar
    27    27    28   ar
    28    28    29   ar
    29    29    30   ar
    30    30    31   ar
    31    31    32   ar
    32     5     1    1
    33    32     9   ar
    34     8     4   ar
    35    27    11   ar
    36    32    28   ar
    37    17    12   ar
    38    26    18   ar
    39    24    20   ar
    40     1    33    1
    41     1    34    1
    42     2    35    1
    43     3    36    1
    44     6    37    1
    45    10    38    1
    46    13    39    1
    47    14    40    1
    48    15    41    1
    49    16    42    1
    50    19    43    1
    51    21    44    1
    52    22    45    1
    53    23    46    1
    54    25    47    1
    55    29    48    1
    56    31    49    1
