@<TRIPOS>MOLECULE
*****
 39 40 0 0 0
SMALL
GASTEIGER

@<TRIPOS>ATOM
      1 C1         -3.3823   -3.0058   -2.5440 C.3     1  <1>         0.0788
      2 O1         -2.9631   -1.7760   -1.9656 O.3     1  <1>        -0.4948
      3 C2         -1.6701   -1.7017   -1.5130 C.ar    1  <1>         0.1255
      4 C3         -0.7474   -2.7499   -1.5653 C.ar    1  <1>        -0.0193
      5 C4          0.5560   -2.5752   -1.0882 C.ar    1  <1>        -0.0528
      6 C5          0.9703   -1.3476   -0.5563 C.ar    1  <1>        -0.0199
      7 C6          2.3835   -1.1849   -0.0332 C.3     1  <1>         0.0806
      8 N1          2.4093   -0.9747    1.4162 N.3     1  <1>        -0.2882
      9 C7          3.6735   -0.2603    1.7317 C.3     1  <1>         0.1158
     10 C8          3.6302    0.3493    3.1264 C.2     1  <1>         0.3228
     11 O2          4.6004    0.6318    3.8122 O.2     1  <1>        -0.2492
     12 O3          2.3835    0.6494    3.5532 O.3     1  <1>        -0.4795
     13 C9          3.8729    0.8611    0.7235 C.3     1  <1>         0.0213
     14 S1          3.2889    0.1678   -0.8357 S.3     1  <1>        -0.1352
     15 C10         0.0330   -0.3006   -0.5036 C.ar    1  <1>        -0.0474
     16 C11        -1.2861   -0.4636   -0.9655 C.ar    1  <1>         0.0200
     17 C12        -2.2818    0.6746   -0.9168 C.3     1  <1>         0.0765
     18 O4         -1.7990    1.7683   -0.1302 O.3     1  <1>        -0.3662
     19 C13        -2.7290    2.8600   -0.1172 C.3     1  <1>         0.1430
     20 C14        -2.2372    4.0230    0.7379 C.3     1  <1>         0.4128
     21 F1         -2.0715    3.6642    2.0300 F       1  <1>        -0.1682
     22 F2         -1.0650    4.5211    0.2871 F       1  <1>        -0.1682
     23 F3         -3.1396    5.0339    0.7146 F       1  <1>        -0.1682
     24 H1         -3.3458   -3.8191   -1.8120 H       1  <1>         0.0660
     25 H2         -4.4239   -2.8883   -2.8579 H       1  <1>         0.0660
     26 H3         -2.7919   -3.2453   -3.4345 H       1  <1>         0.0660
     27 H4         -1.0070   -3.7220   -1.9710 H       1  <1>         0.0654
     28 H5          1.2485   -3.4134   -1.1363 H       1  <1>         0.0622
     29 H6          2.9529   -2.0968   -0.2487 H       1  <1>         0.0627
     30 H7          1.6403   -0.3497    1.6697 H       1  <1>         0.1241
     31 H8          4.4966   -0.9857    1.7082 H       1  <1>         0.0585
     32 H9          2.5158    1.0245    4.4493 H       1  <1>         0.2951
     33 H10         3.2805    1.7510    0.9620 H       1  <1>         0.0398
     34 H11         4.9238    1.1549    0.6449 H       1  <1>         0.0398
     35 H12         0.3359    0.6634   -0.0971 H       1  <1>         0.0626
     36 H13        -2.4688    1.0225   -1.9396 H       1  <1>         0.0611
     37 H14        -3.2172    0.3197   -0.4688 H       1  <1>         0.0611
     38 H15        -3.6888    2.5087    0.2776 H       1  <1>         0.0650
     39 H16        -2.8803    3.2113   -1.1440 H       1  <1>         0.0650
@<TRIPOS>BOND
     1     1     2    1
     2     2     3    1
     3     3     4   ar
     4     4     5   ar
     5     5     6   ar
     6     6     7    1
     7     7     8    1
     8     8     9    1
     9     9    10    1
    10    10    11    2
    11    10    12    1
    12     9    13    1
    13    13    14    1
    14     6    15   ar
    15    15    16   ar
    16    16    17    1
    17    17    18    1
    18    18    19    1
    19    19    20    1
    20    20    21    1
    21    20    22    1
    22    20    23    1
    23    16     3   ar
    24    14     7    1
    25     1    24    1
    26     1    25    1
    27     1    26    1
    28     4    27    1
    29     5    28    1
    30     7    29    1
    31     8    30    1
    32     9    31    1
    33    12    32    1
    34    13    33    1
    35    13    34    1
    36    15    35    1
    37    17    36    1
    38    17    37    1
    39    19    38    1
    40    19    39    1
