@<TRIPOS>MOLECULE
*****
 34 37 0 0 0
SMALL
GASTEIGER

@<TRIPOS>ATOM
      1 C           6.6358    0.1219   -0.2889 C.3     1  UNL1        0.0788
      2 O           5.6302    1.0182    0.1671 O.3     1  UNL1       -0.4951
      3 C           4.3323    0.6037    0.0544 C.ar    1  UNL1        0.1201
      4 C           3.3843    1.5285    0.5001 C.ar    1  UNL1       -0.0193
      5 C           2.0194    1.2354    0.4427 C.ar    1  UNL1       -0.0476
      6 C           1.5915    0.0042   -0.0599 C.ar    1  UNL1        0.0189
      7 C           0.1426   -0.3052   -0.1109 C.ar    1  UNL1        0.1555
      8 N          -0.7823    0.6077    0.1206 N.ar    1  UNL1       -0.2083
      9 C          -1.9610   -0.1035    0.0464 C.ar    1  UNL1        0.1687
     10 C          -3.2123    0.3240    0.2189 C.ar    1  UNL1        0.0448
     11 C          -3.6343    1.6732    0.5073 C.ar    1  UNL1       -0.0490
     12 C          -4.9365    1.9556    0.6526 C.ar    1  UNL1       -0.0610
     13 C          -5.9445    0.9267    0.5259 C.ar    1  UNL1       -0.0597
     14 C          -5.6397   -0.3531    0.2644 C.ar    1  UNL1       -0.0354
     15 C          -4.2208   -0.7803    0.0896 C.ar    1  UNL1        0.0800
     16 N          -3.9632   -2.0309   -0.1479 N.ar    1  UNL1       -0.1914
     17 C          -2.6463   -2.4132   -0.3078 C.ar    1  UNL1        0.3695
     18 O          -2.3228   -3.5834   -0.5014 O.2     1  UNL1       -0.2426
     19 N          -1.7071   -1.4102   -0.2147 N.ar    1  UNL1       -0.1826
     20 N          -0.3390   -1.5790   -0.3948 N.ar    1  UNL1       -0.2706
     21 C           2.5359   -0.9235   -0.5125 C.ar    1  UNL1       -0.0476
     22 C           3.9030   -0.6232   -0.4541 C.ar    1  UNL1       -0.0193
     23 H           6.6282   -0.8072    0.2905 H       1  UNL1        0.0660
     24 H           6.5296   -0.0785   -1.3602 H       1  UNL1        0.0660
     25 H           7.6067    0.6024   -0.1348 H       1  UNL1        0.0660
     26 H           3.7116    2.4880    0.8940 H       1  UNL1        0.0654
     27 H           1.2997    1.9715    0.7932 H       1  UNL1        0.0626
     28 H          -2.8765    2.4459    0.5998 H       1  UNL1        0.0625
     29 H          -5.2645    2.9686    0.8680 H       1  UNL1        0.0618
     30 H          -6.9815    1.2255    0.6515 H       1  UNL1        0.0618
     31 H          -6.3991   -1.1206    0.1716 H       1  UNL1        0.0639
     32 H           0.0474   -2.3441    0.1533 H       1  UNL1        0.1891
     33 H           2.2287   -1.8783   -0.9305 H       1  UNL1        0.0626
     34 H           4.6043   -1.3669   -0.8185 H       1  UNL1        0.0654
@<TRIPOS>BOND
     1     1     2    1
     2     2     3    1
     3     3     4   ar
     4     4     5   ar
     5     5     6   ar
     6     6     7    1
     7     7     8   ar
     8     8     9   ar
     9     9    10   ar
    10    10    11   ar
    11    11    12   ar
    12    12    13   ar
    13    13    14   ar
    14    14    15   ar
    15    15    16   ar
    16    16    17   ar
    17    17    18    2
    18    17    19   ar
    19    19    20   ar
    20     6    21   ar
    21    21    22   ar
    22    22     3   ar
    23    20     7   ar
    24    19     9   ar
    25    15    10   ar
    26     1    23    1
    27     1    24    1
    28     1    25    1
    29     4    26    1
    30     5    27    1
    31    11    28    1
    32    12    29    1
    33    13    30    1
    34    14    31    1
    35    20    32    1
    36    21    33    1
    37    22    34    1
