@<TRIPOS>MOLECULE
*****
 36 38 0 0 0
SMALL
GASTEIGER

@<TRIPOS>ATOM
      1 C          -6.1360    0.8943    1.5543 C.3     1  UNL1        0.0788
      2 O          -5.2093    1.6081    0.7463 O.3     1  UNL1       -0.4951
      3 C          -3.9856    1.0294    0.5506 C.ar    1  UNL1        0.1201
      4 C          -3.1022    1.7815   -0.2274 C.ar    1  UNL1       -0.0193
      5 C          -1.8173    1.3078   -0.5063 C.ar    1  UNL1       -0.0490
      6 C          -1.4031    0.0648   -0.0164 C.ar    1  UNL1        0.0031
      7 C          -0.0549   -0.4190   -0.2991 C.ar    1  UNL1        0.1071
      8 N           0.9977    0.3371    0.0476 N.ar    1  UNL1       -0.1655
      9 N           2.0939   -0.3750   -0.2990 N.ar    1  UNL1       -0.2385
     10 C           3.4015    0.1317   -0.0529 C.ar    1  UNL1        0.0654
     11 C           4.5448   -0.5964   -0.4117 C.ar    1  UNL1       -0.0363
     12 C           5.8162   -0.0727   -0.1574 C.ar    1  UNL1       -0.0598
     13 C           5.9550    1.1727    0.4530 C.ar    1  UNL1       -0.0616
     14 C           4.8234    1.9013    0.8125 C.ar    1  UNL1       -0.0598
     15 C           3.5502    1.3852    0.5618 C.ar    1  UNL1       -0.0363
     16 C           1.7448   -1.5660   -0.8835 C.ar    1  UNL1        0.0459
     17 C           0.3631   -1.6288   -0.9192 C.ar    1  UNL1        0.1044
     18 C          -0.3782   -2.7234   -1.5011 C.2     1  UNL1        0.3404
     19 O           0.1197   -3.7532   -1.9350 O.2     1  UNL1       -0.2450
     20 O          -1.7128   -2.5517   -1.5701 O.3     1  UNL1       -0.4770
     21 C          -2.2838   -0.6822    0.7746 C.ar    1  UNL1       -0.0490
     22 C          -3.5708   -0.2044    1.0534 C.ar    1  UNL1       -0.0193
     23 H          -7.0516    1.4902    1.6189 H       1  UNL1        0.0660
     24 H          -6.3964   -0.0675    1.1003 H       1  UNL1        0.0660
     25 H          -5.7531    0.7613    2.5716 H       1  UNL1        0.0660
     26 H          -3.4139    2.7480   -0.6155 H       1  UNL1        0.0654
     27 H          -1.1400    1.9148   -1.1028 H       1  UNL1        0.0625
     28 H           4.4866   -1.5697   -0.8884 H       1  UNL1        0.0639
     29 H           6.7017   -0.6390   -0.4365 H       1  UNL1        0.0618
     30 H           6.9453    1.5758    0.6489 H       1  UNL1        0.0618
     31 H           4.9289    2.8726    1.2891 H       1  UNL1        0.0618
     32 H           2.6810    1.9730    0.8528 H       1  UNL1        0.0639
     33 H           2.4769   -2.2737   -1.2423 H       1  UNL1        0.0839
     34 H          -2.0270   -3.3671   -2.0108 H       1  UNL1        0.2954
     35 H          -1.9753   -1.6404    1.1852 H       1  UNL1        0.0625
     36 H          -4.2193   -0.8193    1.6679 H       1  UNL1        0.0654
@<TRIPOS>BOND
     1     1     2    1
     2     2     3    1
     3     3     4   ar
     4     4     5   ar
     5     5     6   ar
     6     6     7    1
     7     7     8   ar
     8     8     9   ar
     9     9    10    1
    10    10    11   ar
    11    11    12   ar
    12    12    13   ar
    13    13    14   ar
    14    14    15   ar
    15     9    16   ar
    16    16    17   ar
    17    17    18    1
    18    18    19    2
    19    18    20    1
    20     6    21   ar
    21    21    22   ar
    22    22     3   ar
    23    17     7   ar
    24    15    10   ar
    25     1    23    1
    26     1    24    1
    27     1    25    1
    28     4    26    1
    29     5    27    1
    30    11    28    1
    31    12    29    1
    32    13    30    1
    33    14    31    1
    34    15    32    1
    35    16    33    1
    36    20    34    1
    37    21    35    1
    38    22    36    1
