@<TRIPOS>MOLECULE
*****
 37 39 0 0 0
SMALL
GASTEIGER

@<TRIPOS>ATOM
      1 C           6.2833   -1.4227   -0.0059 C.3     1  UNL1        0.0788
      2 O           5.1062   -2.0793   -0.4584 O.3     1  UNL1       -0.4951
      3 C           3.9319   -1.3878   -0.3471 C.ar    1  UNL1        0.1201
      4 C           3.7785   -0.1093    0.1879 C.ar    1  UNL1       -0.0193
      5 C           2.5109    0.4878    0.2421 C.ar    1  UNL1       -0.0490
      6 C           1.3816   -0.1806   -0.2441 C.ar    1  UNL1        0.0027
      7 C           0.0482    0.4265   -0.1994 C.ar    1  UNL1        0.0985
      8 N          -1.0177   -0.3301    0.1013 N.ar    1  UNL1       -0.1660
      9 N          -2.0869    0.4950    0.0670 N.ar    1  UNL1       -0.2389
     10 C          -3.3930    0.0107    0.3627 C.ar    1  UNL1        0.0654
     11 C          -4.5112    0.8558    0.3224 C.ar    1  UNL1       -0.0363
     12 C          -5.7813    0.3506    0.6175 C.ar    1  UNL1       -0.0598
     13 C          -5.9437   -0.9925    0.9532 C.ar    1  UNL1       -0.0616
     14 C          -4.8373   -1.8376    0.9960 C.ar    1  UNL1       -0.0598
     15 C          -3.5656   -1.3406    0.7025 C.ar    1  UNL1       -0.0363
     16 C          -1.7151    1.7702   -0.2852 C.ar    1  UNL1        0.0372
     17 C          -0.3458    1.7713   -0.4697 C.ar    1  UNL1        0.0235
     18 C           0.4806    2.9366   -0.8791 C.3     1  UNL1        0.0727
     19 O           1.2804    2.6625   -2.0208 O.3     1  UNL1       -0.3903
     20 C           1.5432   -1.4704   -0.7678 C.ar    1  UNL1       -0.0490
     21 C           2.8074   -2.0651   -0.8204 C.ar    1  UNL1       -0.0193
     22 H           7.1280   -2.0981   -0.1729 H       1  UNL1        0.0660
     23 H           6.2310   -1.2147    1.0679 H       1  UNL1        0.0660
     24 H           6.4706   -0.5079   -0.5779 H       1  UNL1        0.0660
     25 H           4.6210    0.4533    0.5757 H       1  UNL1        0.0654
     26 H           2.4248    1.4765    0.6823 H       1  UNL1        0.0625
     27 H          -4.4340    1.9075    0.0674 H       1  UNL1        0.0639
     28 H          -6.6474    1.0074    0.5858 H       1  UNL1        0.0618
     29 H          -6.9328   -1.3811    1.1823 H       1  UNL1        0.0618
     30 H          -4.9608   -2.8853    1.2585 H       1  UNL1        0.0618
     31 H          -2.7159   -2.0202    0.7441 H       1  UNL1        0.0639
     32 H          -2.4319    2.5708   -0.3815 H       1  UNL1        0.0834
     33 H           1.1375    3.2509   -0.0628 H       1  UNL1        0.0608
     34 H          -0.1571    3.7930   -1.1247 H       1  UNL1        0.0608
     35 H           0.7177    2.1841   -2.6538 H       1  UNL1        0.2098
     36 H           0.6817   -2.0217   -1.1390 H       1  UNL1        0.0625
     37 H           2.9131   -3.0654   -1.2325 H       1  UNL1        0.0654
@<TRIPOS>BOND
     1     1     2    1
     2     2     3    1
     3     3     4   ar
     4     4     5   ar
     5     5     6   ar
     6     6     7    1
     7     7     8   ar
     8     8     9   ar
     9     9    10    1
    10    10    11   ar
    11    11    12   ar
    12    12    13   ar
    13    13    14   ar
    14    14    15   ar
    15     9    16   ar
    16    16    17   ar
    17    17    18    1
    18    18    19    1
    19     6    20   ar
    20    20    21   ar
    21    21     3   ar
    22    17     7   ar
    23    15    10   ar
    24     1    22    1
    25     1    23    1
    26     1    24    1
    27     4    25    1
    28     5    26    1
    29    11    27    1
    30    12    28    1
    31    13    29    1
    32    14    30    1
    33    15    31    1
    34    16    32    1
    35    18    33    1
    36    18    34    1
    37    19    35    1
    38    20    36    1
    39    21    37    1
