@<TRIPOS>MOLECULE
*****
 30 32 0 0 0
SMALL
GASTEIGER

@<TRIPOS>ATOM
      1 C           5.0623   -1.2897   -0.8660 C.3     1  UNL1        0.0788
      2 O           4.6818   -0.1580   -0.0941 O.3     1  UNL1       -0.4951
      3 C           3.3639    0.2023   -0.1326 C.ar    1  UNL1        0.1201
      4 C           3.0429    1.3297    0.6227 C.ar    1  UNL1       -0.0193
      5 C           1.7285    1.8051    0.6705 C.ar    1  UNL1       -0.0475
      6 C           0.7009    1.1569   -0.0298 C.ar    1  UNL1        0.0212
      7 C          -0.6621    1.6972    0.0461 C.ar    1  UNL1        0.1858
      8 N          -0.9606    2.9628    0.3121 N.ar    1  UNL1       -0.1265
      9 N          -2.3255    3.1135    0.2940 N.ar    1  UNL1       -0.1203
     10 C          -2.8330    1.9343    0.0497 C.ar    1  UNL1        0.2127
     11 N          -1.8491    0.9845   -0.0904 N.ar    1  UNL1       -0.1868
     12 N          -1.9837   -0.3597   -0.3449 N.2     1  UNL1       -0.1714
     13 C          -3.1679   -0.8768   -0.1889 C.2     1  UNL1        0.0468
     14 C          -3.3221   -2.3468   -0.5066 C.3     1  UNL1       -0.0238
     15 C          -4.3907   -0.1853    0.3854 C.3     1  UNL1        0.0410
     16 S          -4.4974    1.5342   -0.1303 S.3     1  UNL1       -0.0783
     17 C           1.0367    0.0330   -0.7958 C.ar    1  UNL1       -0.0475
     18 C           2.3553   -0.4436   -0.8448 C.ar    1  UNL1       -0.0193
     19 H           4.5546   -2.1947   -0.5162 H       1  UNL1        0.0660
     20 H           6.1381   -1.4392   -0.7326 H       1  UNL1        0.0660
     21 H           4.8794   -1.1203   -1.9323 H       1  UNL1        0.0660
     22 H           3.8213    1.8482    1.1773 H       1  UNL1        0.0654
     23 H           1.5118    2.6924    1.2639 H       1  UNL1        0.0626
     24 H          -2.4061   -2.7461   -0.9508 H       1  UNL1        0.0290
     25 H          -3.5412   -2.8922    0.4153 H       1  UNL1        0.0290
     26 H          -4.1472   -2.4819   -1.2109 H       1  UNL1        0.0290
     27 H          -5.2958   -0.7064    0.0602 H       1  UNL1        0.0442
     28 H          -4.3360   -0.2464    1.4772 H       1  UNL1        0.0442
     29 H           0.2848   -0.4885   -1.3828 H       1  UNL1        0.0626
     30 H           2.5560   -1.3186   -1.4540 H       1  UNL1        0.0654
@<TRIPOS>BOND
     1     1     2    1
     2     2     3    1
     3     3     4   ar
     4     4     5   ar
     5     5     6   ar
     6     6     7    1
     7     7     8   ar
     8     8     9   ar
     9     9    10   ar
    10    10    11   ar
    11    11    12    1
    12    12    13    2
    13    13    14    1
    14    13    15    1
    15    15    16    1
    16     6    17   ar
    17    17    18   ar
    18    18     3   ar
    19    11     7   ar
    20    16    10    1
    21     1    19    1
    22     1    20    1
    23     1    21    1
    24     4    22    1
    25     5    23    1
    26    14    24    1
    27    14    25    1
    28    14    26    1
    29    15    27    1
    30    15    28    1
    31    17    29    1
    32    18    30    1
