@<TRIPOS>MOLECULE
*****
 38 39 0 0 0
SMALL
GASTEIGER

@<TRIPOS>ATOM
      1 C          -7.1847    0.1153    0.0806 C.3     1  UNL1        0.0788
      2 O          -6.2848   -0.9849    0.1177 O.3     1  UNL1       -0.4951
      3 C          -4.9877   -0.7118    0.4536 C.ar    1  UNL1        0.1201
      4 C          -4.4649    0.5445    0.7587 C.ar    1  UNL1       -0.0197
      5 C          -3.1113    0.6838    1.0864 C.ar    1  UNL1       -0.0546
      6 C          -2.2653   -0.4320    1.1179 C.ar    1  UNL1       -0.0365
      7 C          -0.8038   -0.2790    1.4475 C.3     1  UNL1        0.0701
      8 C           0.0631   -0.2124    0.2151 C.2     1  UNL1        0.3119
      9 O           0.7014   -1.1549   -0.2393 O.2     1  UNL1       -0.2505
     10 O           0.0443    1.0347   -0.3294 O.3     1  UNL1       -0.4549
     11 C           0.7812    1.1783   -1.5437 C.3     1  UNL1        0.1684
     12 C           2.2807    1.4034   -1.3268 C.2     1  UNL1        0.2560
     13 O           2.7718    2.5229   -1.4480 O.2     1  UNL1       -0.2717
     14 N           2.9621    0.2529   -1.0048 N.am    1  UNL1       -0.2676
     15 C           4.3242    0.0905   -0.7582 C.ar    1  UNL1        0.1250
     16 C           5.2640    1.1099   -0.8548 C.ar    1  UNL1       -0.0201
     17 C           6.6054    0.8254   -0.5852 C.ar    1  UNL1       -0.0387
     18 C           6.9671   -0.4652   -0.2296 C.ar    1  UNL1        0.0592
     19 CL          8.6011   -0.8588    0.1101 Cl      1  UNL1       -0.0820
     20 C           5.9706   -1.4224   -0.1579 C.ar    1  UNL1        0.0480
     21 N           4.6625   -1.1715   -0.4144 N.ar    1  UNL1       -0.2387
     22 C          -2.7929   -1.6894    0.8038 C.ar    1  UNL1       -0.0546
     23 C          -4.1442   -1.8242    0.4775 C.ar    1  UNL1       -0.0197
     24 H          -8.1707   -0.2687   -0.1979 H       1  UNL1        0.0660
     25 H          -7.2764    0.5843    1.0659 H       1  UNL1        0.0660
     26 H          -6.8849    0.8449   -0.6789 H       1  UNL1        0.0660
     27 H          -5.0808    1.4375    0.7493 H       1  UNL1        0.0654
     28 H          -2.7239    1.6750    1.3145 H       1  UNL1        0.0622
     29 H          -0.4663   -1.1221    2.0628 H       1  UNL1        0.0426
     30 H          -0.6256    0.6141    2.0588 H       1  UNL1        0.0426
     31 H           0.6199    0.3270   -2.2168 H       1  UNL1        0.0796
     32 H           0.3824    2.0570   -2.0630 H       1  UNL1        0.0796
     33 H           2.4325   -0.6081   -0.8697 H       1  UNL1        0.1563
     34 H           4.9930    2.1210   -1.1348 H       1  UNL1        0.0652
     35 H           7.3497    1.6133   -0.6569 H       1  UNL1        0.0634
     36 H           6.1941   -2.4497    0.1149 H       1  UNL1        0.0845
     37 H          -2.1589   -2.5741    0.8079 H       1  UNL1        0.0622
     38 H          -4.5439   -2.8066    0.2370 H       1  UNL1        0.0654
@<TRIPOS>BOND
     1     1     2    1
     2     2     3    1
     3     3     4   ar
     4     4     5   ar
     5     5     6   ar
     6     6     7    1
     7     7     8    1
     8     8     9    2
     9     8    10    1
    10    10    11    1
    11    11    12    1
    12    12    13    2
    13    12    14   am
    14    14    15    1
    15    15    16   ar
    16    16    17   ar
    17    17    18   ar
    18    18    19    1
    19    18    20   ar
    20    20    21   ar
    21     6    22   ar
    22    22    23   ar
    23    23     3   ar
    24    21    15   ar
    25     1    24    1
    26     1    25    1
    27     1    26    1
    28     4    27    1
    29     5    28    1
    30     7    29    1
    31     7    30    1
    32    11    31    1
    33    11    32    1
    34    14    33    1
    35    16    34    1
    36    17    35    1
    37    20    36    1
    38    22    37    1
    39    23    38    1
