@<TRIPOS>MOLECULE
*****
 38 39 0 0 0
SMALL
GASTEIGER

@<TRIPOS>ATOM
      1 C          -3.7413   -0.5484   -3.2084 C.3     1  UNL1        0.0790
      2 O          -3.9026   -0.7059   -1.8054 O.3     1  UNL1       -0.4915
      3 C          -2.9568   -0.1418   -0.9873 C.ar    1  UNL1        0.1615
      4 C          -1.8973    0.6530   -1.4331 C.ar    1  UNL1       -0.0160
      5 C          -0.9780    1.1852   -0.5253 C.ar    1  UNL1       -0.0547
      6 C          -1.0996    0.9238    0.8435 C.ar    1  UNL1       -0.0376
      7 C          -0.0726    1.4447    1.8169 C.3     1  UNL1        0.0346
      8 C           0.9955    0.4021    2.1538 C.3     1  UNL1        0.1833
      9 N           1.8100    0.0463    1.0060 N.ar    1  UNL1       -0.0490
     10 C           2.7979    0.8453    0.4962 C.ar    1  UNL1        0.2654
     11 C           3.3103    0.1446   -0.5726 C.ar    1  UNL1        0.3203
     12 N           4.2737    0.4981   -1.4360 N.2     1  UNL1       -0.2263
     13 C           5.4939    0.0864   -1.2296 C.2     1  UNL1       -0.0351
     14 C           5.8135   -0.8589   -0.0559 C.3     1  UNL1       -0.0364
     15 O           6.4642    0.4245   -1.9280 O.co2   1  UNL1       -0.8632
     16 O           2.6019   -1.0440   -0.6593 O.2     1  UNL1       -0.2799
     17 N           1.6519   -1.0958    0.3745 N.ar    1  UNL1        0.2028
     18 C          -2.1699    0.1358    1.2946 C.ar    1  UNL1       -0.0129
     19 C          -3.1025   -0.3901    0.3910 C.ar    1  UNL1        0.1617
     20 O          -4.1633   -1.1813    0.7548 O.3     1  UNL1       -0.4914
     21 C          -4.5450   -1.1843    2.1227 C.3     1  UNL1        0.0790
     22 H          -2.7934   -0.9778   -3.5493 H       1  UNL1        0.0660
     23 H          -4.5505   -1.0958   -3.7015 H       1  UNL1        0.0660
     24 H          -3.8272    0.5038   -3.4983 H       1  UNL1        0.0660
     25 H          -1.7599    0.8796   -2.4862 H       1  UNL1        0.0655
     26 H          -0.1699    1.8029   -0.9141 H       1  UNL1        0.0621
     27 H           0.3949    2.3499    1.4099 H       1  UNL1        0.0376
     28 H          -0.5807    1.7561    2.7381 H       1  UNL1        0.0376
     29 H           0.5379   -0.5090    2.5590 H       1  UNL1        0.1059
     30 H           1.6617    0.7965    2.9309 H       1  UNL1        0.1059
     31 H           3.0942    1.8147    0.8623 H       1  UNL1        0.1460
     32 H           5.2183   -1.7739   -0.1391 H       1  UNL1        0.0281
     33 H           6.8707   -1.1482   -0.0437 H       1  UNL1        0.0281
     34 H           5.5901   -0.3629    0.8942 H       1  UNL1        0.0281
     35 H          -2.2635   -0.0682    2.3567 H       1  UNL1        0.0658
     36 H          -4.7049   -0.1674    2.4967 H       1  UNL1        0.0660
     37 H          -5.4942   -1.7226    2.2046 H       1  UNL1        0.0660
     38 H          -3.8074   -1.7170    2.7312 H       1  UNL1        0.0660
@<TRIPOS>UNITY_ATOM_ATTR
9 1
charge 1
15 1
charge -1
@<TRIPOS>BOND
     1     1     2    1
     2     2     3    1
     3     3     4   ar
     4     4     5   ar
     5     5     6   ar
     6     6     7    1
     7     7     8    1
     8     8     9    1
     9     9    10   ar
    10    10    11   ar
    11    11    12    1
    12    12    13    2
    13    13    14    1
    14    13    15    1
    15    11    16   ar
    16    16    17   ar
    17     6    18   ar
    18    18    19   ar
    19    19    20    1
    20    20    21    1
    21    19     3   ar
    22    17     9   ar
    23     1    22    1
    24     1    23    1
    25     1    24    1
    26     4    25    1
    27     5    26    1
    28     7    27    1
    29     7    28    1
    30     8    29    1
    31     8    30    1
    32    10    31    1
    33    14    32    1
    34    14    33    1
    35    14    34    1
    36    18    35    1
    37    21    36    1
    38    21    37    1
    39    21    38    1
