@<TRIPOS>MOLECULE
*****
 39 41 0 0 0
SMALL
GASTEIGER

@<TRIPOS>ATOM
      1 C          -5.6565   -2.1339   -2.3017 C.3     1  UNL1        0.0790
      2 O          -4.8371   -2.5468   -1.2180 O.3     1  UNL1       -0.4915
      3 C          -3.5810   -1.9994   -1.1249 C.ar    1  UNL1        0.1615
      4 C          -3.0642   -1.0515   -2.0141 C.ar    1  UNL1       -0.0160
      5 C          -1.7730   -0.5472   -1.8405 C.ar    1  UNL1       -0.0548
      6 C          -0.9779   -0.9861   -0.7784 C.ar    1  UNL1       -0.0422
      7 C           0.4065   -0.4228   -0.5784 C.3     1  UNL1       -0.0112
      8 C           0.3889    0.8116    0.3264 C.3     1  UNL1        0.0270
      9 N           1.7245    1.3413    0.5293 N.am    1  UNL1       -0.2325
     10 C           2.5767    0.9136    1.5087 C.2     1  UNL1        0.2554
     11 O           2.3974    0.0772    2.3727 O.2     1  UNL1       -0.2695
     12 C           3.8241    1.6416    1.3259 C.ar    1  UNL1        0.0678
     13 C           5.0114    1.6294    2.0247 C.ar    1  UNL1       -0.0460
     14 C           6.0247    2.4651    1.5489 C.ar    1  UNL1       -0.0428
     15 C           5.7894    3.2508    0.4116 C.ar    1  UNL1        0.0285
     16 N           4.6243    3.2634   -0.2815 N.ar    1  UNL1       -0.2496
     17 C           3.6825    2.4451    0.2203 C.ar    1  UNL1        0.1380
     18 C           2.3305    2.2341   -0.3188 C.2     1  UNL1        0.2722
     19 O           1.8673    2.7355   -1.3260 O.2     1  UNL1       -0.2679
     20 C          -1.4959   -1.9325    0.1183 C.ar    1  UNL1       -0.0131
     21 C          -2.7895   -2.4439   -0.0470 C.ar    1  UNL1        0.1617
     22 O          -3.3689   -3.3711    0.7845 O.3     1  UNL1       -0.4914
     23 C          -2.5985   -3.8516    1.8762 C.3     1  UNL1        0.0790
     24 H          -5.2031   -2.3964   -3.2632 H       1  UNL1        0.0660
     25 H          -5.8756   -1.0626   -2.2455 H       1  UNL1        0.0660
     26 H          -6.6069   -2.6709   -2.2258 H       1  UNL1        0.0660
     27 H          -3.6418   -0.6813   -2.8543 H       1  UNL1        0.0655
     28 H          -1.3942    0.1928   -2.5435 H       1  UNL1        0.0621
     29 H           0.8469   -0.1736   -1.5526 H       1  UNL1        0.0329
     30 H           1.0589   -1.1967   -0.1535 H       1  UNL1        0.0329
     31 H          -0.0343    0.5582    1.3057 H       1  UNL1        0.0473
     32 H          -0.2328    1.5982   -0.1175 H       1  UNL1        0.0473
     33 H           5.1484    1.0007    2.8979 H       1  UNL1        0.0626
     34 H           6.9878    2.5086    2.0497 H       1  UNL1        0.0633
     35 H           6.5642    3.9081    0.0223 H       1  UNL1        0.0830
     36 H          -0.8680   -2.2562    0.9428 H       1  UNL1        0.0658
     37 H          -2.3489   -3.0423    2.5702 H       1  UNL1        0.0660
     38 H          -3.2081   -4.5790    2.4211 H       1  UNL1        0.0660
     39 H          -1.6981   -4.3682    1.5280 H       1  UNL1        0.0660
@<TRIPOS>BOND
     1     1     2    1
     2     2     3    1
     3     3     4   ar
     4     4     5   ar
     5     5     6   ar
     6     6     7    1
     7     7     8    1
     8     8     9    1
     9     9    10   am
    10    10    11    2
    11    10    12    1
    12    12    13   ar
    13    13    14   ar
    14    14    15   ar
    15    15    16   ar
    16    16    17   ar
    17    17    18    1
    18    18    19    2
    19     6    20   ar
    20    20    21   ar
    21    21    22    1
    22    22    23    1
    23    21     3   ar
    24    18     9   am
    25    17    12   ar
    26     1    24    1
    27     1    25    1
    28     1    26    1
    29     4    27    1
    30     5    28    1
    31     7    29    1
    32     7    30    1
    33     8    31    1
    34     8    32    1
    35    13    33    1
    36    14    34    1
    37    15    35    1
    38    20    36    1
    39    23    37    1
    40    23    38    1
    41    23    39    1
