@<TRIPOS>MOLECULE
*****
 48 49 0 0 0
SMALL
GASTEIGER

@<TRIPOS>ATOM
      1 C          -7.4718    1.5586    1.8159 C.3     1  UNL1        0.0790
      2 O          -7.0585    0.4750    0.9965 O.3     1  UNL1       -0.4915
      3 C          -5.7145    0.3425    0.7469 C.ar    1  UNL1        0.1615
      4 C          -4.7312    1.2100    1.2328 C.ar    1  UNL1       -0.0160
      5 C          -3.3852    0.9975    0.9258 C.ar    1  UNL1       -0.0548
      6 C          -3.0010   -0.0864    0.1309 C.ar    1  UNL1       -0.0422
      7 C          -1.5480   -0.2952   -0.2167 C.3     1  UNL1       -0.0119
      8 C          -1.1397    0.5108   -1.4520 C.3     1  UNL1        0.0160
      9 N           0.2455    0.2982   -1.8077 N.am    1  UNL1       -0.3073
     10 C           1.2815    0.9211   -1.1493 C.2     1  UNL1        0.2990
     11 O           1.1726    1.7315   -0.2404 O.2     1  UNL1       -0.2652
     12 C           2.6787    0.4928   -1.6555 C.2     1  UNL1        0.2990
     13 O           2.7812   -0.3741   -2.5132 O.2     1  UNL1       -0.2652
     14 N           3.7186    1.1524   -1.0435 N.am    1  UNL1       -0.3051
     15 C           5.0966    0.7405   -1.2210 C.3     1  UNL1        0.0383
     16 C           5.4566   -0.4560   -0.3254 C.3     1  UNL1        0.0742
     17 C           6.8769   -0.9531   -0.5575 C.3     1  UNL1       -0.0231
     18 C           7.6739   -0.1832    0.4656 C.3     1  UNL1       -0.0271
     19 C           6.7067   -0.1157    1.6249 C.3     1  UNL1        0.0482
     20 O           5.3934   -0.0332    1.0559 O.3     1  UNL1       -0.3750
     21 C          -3.9859   -0.9554   -0.3614 C.ar    1  UNL1       -0.0131
     22 C          -5.3383   -0.7519   -0.0575 C.ar    1  UNL1        0.1617
     23 O          -6.3618   -1.5547   -0.4990 O.3     1  UNL1       -0.4914
     24 C          -6.0188   -2.7046   -1.2578 C.3     1  UNL1        0.0790
     25 H          -7.2258    2.5201    1.3534 H       1  UNL1        0.0660
     26 H          -7.0438    1.4805    2.8208 H       1  UNL1        0.0660
     27 H          -8.5604    1.5071    1.9144 H       1  UNL1        0.0660
     28 H          -4.9780    2.0644    1.8538 H       1  UNL1        0.0655
     29 H          -2.6367    1.6872    1.3127 H       1  UNL1        0.0621
     30 H          -1.3570   -1.3629   -0.3860 H       1  UNL1        0.0328
     31 H          -0.9254   -0.0213    0.6446 H       1  UNL1        0.0328
     32 H          -1.2914    1.5826   -1.2781 H       1  UNL1        0.0465
     33 H          -1.7425    0.2239   -2.3206 H       1  UNL1        0.0465
     34 H           0.5022   -0.3948   -2.5066 H       1  UNL1        0.1492
     35 H           3.4745    1.6985   -0.2200 H       1  UNL1        0.1492
     36 H           5.7098    1.6132   -0.9736 H       1  UNL1        0.0487
     37 H           5.2502    0.4861   -2.2753 H       1  UNL1        0.0487
     38 H           4.7340   -1.2669   -0.4687 H       1  UNL1        0.0611
     39 H           6.9308   -2.0239   -0.3246 H       1  UNL1        0.0291
     40 H           7.2337   -0.8171   -1.5822 H       1  UNL1        0.0291
     41 H           8.6230   -0.6570    0.7292 H       1  UNL1        0.0288
     42 H           7.8853    0.8253    0.0920 H       1  UNL1        0.0288
     43 H           6.8833    0.7477    2.2721 H       1  UNL1        0.0560
     44 H           6.7521   -1.0252    2.2335 H       1  UNL1        0.0560
     45 H          -3.6728   -1.7873   -0.9839 H       1  UNL1        0.0658
     46 H          -5.3813   -3.3839   -0.6823 H       1  UNL1        0.0660
     47 H          -5.5472   -2.4252   -2.2056 H       1  UNL1        0.0660
     48 H          -6.9446   -3.2385   -1.4931 H       1  UNL1        0.0660
@<TRIPOS>BOND
     1     1     2    1
     2     2     3    1
     3     3     4   ar
     4     4     5   ar
     5     5     6   ar
     6     6     7    1
     7     7     8    1
     8     8     9    1
     9     9    10   am
    10    10    11    2
    11    10    12    1
    12    12    13    2
    13    12    14   am
    14    14    15    1
    15    15    16    1
    16    16    17    1
    17    17    18    1
    18    18    19    1
    19    19    20    1
    20     6    21   ar
    21    21    22   ar
    22    22    23    1
    23    23    24    1
    24    22     3   ar
    25    20    16    1
    26     1    25    1
    27     1    26    1
    28     1    27    1
    29     4    28    1
    30     5    29    1
    31     7    30    1
    32     7    31    1
    33     8    32    1
    34     8    33    1
    35     9    34    1
    36    14    35    1
    37    15    36    1
    38    15    37    1
    39    16    38    1
    40    17    39    1
    41    17    40    1
    42    18    41    1
    43    18    42    1
    44    19    43    1
    45    19    44    1
    46    21    45    1
    47    24    46    1
    48    24    47    1
    49    24    48    1
