@<TRIPOS>MOLECULE
*****
 39 40 0 0 0
SMALL
GASTEIGER

@<TRIPOS>ATOM
      1 C           5.8460    1.0937    3.1106 C.3     1  UNL1        0.0788
      2 O           5.4847    0.0561    2.2085 O.3     1  UNL1       -0.4951
      3 C           4.2382    0.1289    1.6502 C.ar    1  UNL1        0.1201
      4 C           3.2895    1.1240    1.8853 C.ar    1  UNL1       -0.0197
      5 C           2.0460    1.0779    1.2443 C.ar    1  UNL1       -0.0551
      6 C           1.7351    0.0345    0.3642 C.ar    1  UNL1       -0.0457
      7 C           0.4038   -0.0076   -0.3424 C.3     1  UNL1       -0.0121
      8 C           0.4791    0.6178   -1.7380 C.3     1  UNL1        0.0156
      9 N          -0.8122    0.6328   -2.3961 N.am    1  UNL1       -0.3143
     10 C          -1.3543   -0.5146   -2.9366 C.2     1  UNL1        0.2233
     11 O          -0.7005   -1.5486   -3.0771 O.2     1  UNL1       -0.2749
     12 C          -2.7848   -0.4103   -3.4492 C.3     1  UNL1        0.0762
     13 S          -3.7699    0.9301   -2.6935 S.3     1  UNL1       -0.0966
     14 C          -4.0611    0.2519   -1.0707 C.ar    1  UNL1        0.0973
     15 C          -5.0905    0.7698   -0.2939 C.ar    1  UNL1       -0.0298
     16 C          -5.2926    0.2516    0.9833 C.ar    1  UNL1       -0.0578
     17 C          -4.4606   -0.7600    1.4461 C.ar    1  UNL1       -0.0435
     18 C          -3.4556   -1.2107    0.6084 C.ar    1  UNL1        0.0288
     19 N          -3.2384   -0.7226   -0.6325 N.ar    1  UNL1       -0.2488
     20 C           2.6915   -0.9589    0.1279 C.ar    1  UNL1       -0.0551
     21 C           3.9312   -0.9098    0.7689 C.ar    1  UNL1       -0.0197
     22 H           6.8617    0.8910    3.4637 H       1  UNL1        0.0660
     23 H           5.8563    2.0672    2.6091 H       1  UNL1        0.0660
     24 H           5.1861    1.1051    3.9843 H       1  UNL1        0.0660
     25 H           3.4836    1.9506    2.5601 H       1  UNL1        0.0654
     26 H           1.3210    1.8649    1.4396 H       1  UNL1        0.0621
     27 H          -0.3506    0.5148    0.2604 H       1  UNL1        0.0328
     28 H           0.0588   -1.0477   -0.4028 H       1  UNL1        0.0328
     29 H           0.8178    1.6581   -1.6789 H       1  UNL1        0.0465
     30 H           1.1885    0.0701   -2.3693 H       1  UNL1        0.0465
     31 H          -1.4762    1.3501   -2.1272 H       1  UNL1        0.1487
     32 H          -3.2925   -1.3684   -3.2987 H       1  UNL1        0.0475
     33 H          -2.7315   -0.2185   -4.5256 H       1  UNL1        0.0475
     34 H          -5.7311    1.5616   -0.6685 H       1  UNL1        0.0644
     35 H          -6.0929    0.6352    1.6100 H       1  UNL1        0.0619
     36 H          -4.5910   -1.1867    2.4344 H       1  UNL1        0.0633
     37 H          -2.7758   -1.9990    0.9208 H       1  UNL1        0.0830
     38 H           2.4778   -1.7772   -0.5573 H       1  UNL1        0.0621
     39 H           4.6654   -1.6887    0.5780 H       1  UNL1        0.0654
@<TRIPOS>BOND
     1     1     2    1
     2     2     3    1
     3     3     4   ar
     4     4     5   ar
     5     5     6   ar
     6     6     7    1
     7     7     8    1
     8     8     9    1
     9     9    10   am
    10    10    11    2
    11    10    12    1
    12    12    13    1
    13    13    14    1
    14    14    15   ar
    15    15    16   ar
    16    16    17   ar
    17    17    18   ar
    18    18    19   ar
    19     6    20   ar
    20    20    21   ar
    21    21     3   ar
    22    19    14   ar
    23     1    22    1
    24     1    23    1
    25     1    24    1
    26     4    25    1
    27     5    26    1
    28     7    27    1
    29     7    28    1
    30     8    29    1
    31     8    30    1
    32     9    31    1
    33    12    32    1
    34    12    33    1
    35    15    34    1
    36    16    35    1
    37    17    36    1
    38    18    37    1
    39    20    38    1
    40    21    39    1
