@<TRIPOS>MOLECULE
*****
 44 50 0 0 0
SMALL
GASTEIGER

@<TRIPOS>ATOM
      1 SI          6.5340    0.7792    0.1911 Si      1  UNL1        0.0000
      2 C           5.2805    1.1083    1.5996 C.2     1  UNL1        0.0000
      3 C           4.0441    0.6720    1.2725 C.2     1  UNL1        0.0000
      4 C           3.9388    0.0700   -0.0247 C.ar    1  UNL1        0.0000
      5 C           5.1289    0.0103   -0.7985 C.ar    1  UNL1        0.0000
      6 C           4.9890   -0.5614   -2.0252 C.ar    1  UNL1        0.0000
      7 S           3.3460   -1.0429   -2.2489 S.2     1  UNL1        0.0000
      8 C           2.8649   -0.4790   -0.6834 C.ar    1  UNL1        0.0000
      9 C           1.4818   -0.6305   -0.2741 C.ar    1  UNL1        0.0000
     10 C           0.4358    0.1976   -0.7337 C.ar    1  UNL1        0.0000
     11 C          -0.9705    0.1334   -0.3571 C.ar    1  UNL1        0.0000
     12 C          -1.9181    1.1041   -0.8346 C.ar    1  UNL1        0.0000
     13 C          -1.5332    2.2213   -1.6327 C.ar    1  UNL1        0.0000
     14 C          -2.4263    3.1925   -2.0849 C.ar    1  UNL1        0.0000
     15 C          -3.7565    3.0898   -1.7513 C.ar    1  UNL1        0.0000
     16 C          -4.1786    2.0137   -0.9740 C.ar    1  UNL1        0.0000
     17 C          -3.3001    0.9985   -0.4984 C.ar    1  UNL1        0.0000
     18 C          -3.7762   -0.1156    0.2678 C.ar    1  UNL1        0.0000
     19 C          -5.1493   -0.3137    0.5726 C.ar    1  UNL1        0.0000
     20 C          -5.5787   -1.4454    1.2415 C.ar    1  UNL1        0.0000
     21 N          -4.7526   -2.4236    1.6135 N.ar    1  UNL1        0.0000
     22 C          -3.4431   -2.2258    1.3335 C.ar    1  UNL1        0.0000
     23 C          -2.8633   -1.0880    0.7320 C.ar    1  UNL1        0.0000
     24 C          -1.4446   -0.9089    0.5164 C.ar    1  UNL1        0.0000
     25 C          -0.3488   -1.6722    1.0816 C.ar    1  UNL1        0.0000
     26 C          -0.4375   -2.5196    2.1666 C.ar    1  UNL1        0.0000
     27 S           1.0485   -3.2928    2.5434 S.2     1  UNL1        0.0000
     28 C           1.8781   -2.4063    1.3420 C.ar    1  UNL1        0.0000
     29 C           1.0376   -1.5375    0.6822 C.ar    1  UNL1        0.0000
     30 H           7.5722   -0.1906    0.6198 H       1  UNL1        0.0000
     31 H           7.0447    2.0528   -0.3742 H       1  UNL1        0.0000
     32 H           5.5890    1.5877    2.5146 H       1  UNL1        0.0000
     33 H           3.1896    0.7651    1.9337 H       1  UNL1        0.0000
     34 H           5.7230   -0.7288   -2.8018 H       1  UNL1        0.0000
     35 H           0.7580    0.9543   -1.4473 H       1  UNL1        0.0000
     36 H          -0.4992    2.3838   -1.9211 H       1  UNL1        0.0000
     37 H          -2.0712    4.0235   -2.6883 H       1  UNL1        0.0000
     38 H          -4.4697    3.8363   -2.0891 H       1  UNL1        0.0000
     39 H          -5.2405    1.9927   -0.7480 H       1  UNL1        0.0000
     40 H          -5.9165    0.3939    0.2829 H       1  UNL1        0.0000
     41 H          -6.6280   -1.5991    1.4741 H       1  UNL1        0.0000
     42 H          -2.8526   -3.1020    1.5749 H       1  UNL1        0.0000
     43 H          -1.2719   -2.7449    2.8113 H       1  UNL1        0.0000
     44 H           2.9427   -2.5519    1.2161 H       1  UNL1        0.0000
@<TRIPOS>BOND
     1     1     2    1
     2     2     3    2
     3     3     4    1
     4     4     5   ar
     5     5     6   ar
     6     6     7   ar
     7     7     8   ar
     8     8     9    1
     9     9    10   ar
    10    10    11   ar
    11    11    12   ar
    12    12    13   ar
    13    13    14   ar
    14    14    15   ar
    15    15    16   ar
    16    16    17   ar
    17    17    18   ar
    18    18    19   ar
    19    19    20   ar
    20    20    21   ar
    21    21    22   ar
    22    22    23   ar
    23    23    24   ar
    24    24    25   ar
    25    25    26   ar
    26    26    27   ar
    27    27    28   ar
    28    28    29   ar
    29     5     1    1
    30    29     9   ar
    31     8     4   ar
    32    24    11   ar
    33    29    25   ar
    34    17    12   ar
    35    23    18   ar
    36     1    30    1
    37     1    31    1
    38     2    32    1
    39     3    33    1
    40     6    34    1
    41    10    35    1
    42    13    36    1
    43    14    37    1
    44    15    38    1
    45    16    39    1
    46    19    40    1
    47    20    41    1
    48    22    42    1
    49    26    43    1
    50    28    44    1
