@<TRIPOS>MOLECULE
*****
 45 47 0 0 0
SMALL
GASTEIGER

@<TRIPOS>ATOM
      1 C           8.1258   -1.8422   -0.1034 C.3     1  UNL1        0.0788
      2 O           7.0470   -2.0112    0.8066 O.3     1  UNL1       -0.4951
      3 C           5.9651   -1.1908    0.6401 C.ar    1  UNL1        0.1201
      4 C           4.9158   -1.4187    1.5327 C.ar    1  UNL1       -0.0197
      5 C           3.7490   -0.6528    1.4750 C.ar    1  UNL1       -0.0551
      6 C           3.6183    0.3618    0.5212 C.ar    1  UNL1       -0.0457
      7 C           2.3544    1.1786    0.4400 C.3     1  UNL1       -0.0121
      8 C           1.3330    0.5585   -0.5112 C.3     1  UNL1        0.0156
      9 N           0.1137    1.3465   -0.5758 N.am    1  UNL1       -0.3143
     10 C          -0.8360    1.0680   -1.5364 C.2     1  UNL1        0.2233
     11 O          -0.6264    0.3122   -2.4836 O.2     1  UNL1       -0.2749
     12 C          -2.1528    1.8213   -1.4234 C.3     1  UNL1        0.0777
     13 S          -2.6700    2.1928    0.2782 S.3     1  UNL1       -0.0749
     14 C          -2.8079    0.5939    0.9263 C.ar    1  UNL1        0.2144
     15 N          -1.8134    0.0169    1.5632 N.ar    1  UNL1       -0.1011
     16 N          -2.2078   -1.2675    1.7931 N.ar    1  UNL1       -0.0218
     17 N          -3.4195   -1.4877    1.3094 N.ar    1  UNL1       -0.0382
     18 N          -3.8595   -0.3054    0.7936 N.ar    1  UNL1       -0.1875
     19 C          -5.1775   -0.2058    0.2632 C.ar    1  UNL1        0.0699
     20 C          -5.9091   -1.3896    0.0514 C.ar    1  UNL1       -0.0361
     21 C          -7.2040   -1.3459   -0.4713 C.ar    1  UNL1       -0.0598
     22 C          -7.7892   -0.1223   -0.7794 C.ar    1  UNL1       -0.0616
     23 C          -7.0838    1.0569   -0.5563 C.ar    1  UNL1       -0.0598
     24 C          -5.7856    1.0197   -0.0336 C.ar    1  UNL1       -0.0361
     25 C           4.6694    0.5857   -0.3766 C.ar    1  UNL1       -0.0551
     26 C           5.8368   -0.1842   -0.3164 C.ar    1  UNL1       -0.0197
     27 H           8.8974   -2.5753    0.1522 H       1  UNL1        0.0660
     28 H           8.5697   -0.8460   -0.0083 H       1  UNL1        0.0660
     29 H           7.8088   -2.0377   -1.1328 H       1  UNL1        0.0660
     30 H           5.0067   -2.2041    2.2792 H       1  UNL1        0.0654
     31 H           2.9457   -0.8580    2.1794 H       1  UNL1        0.0621
     32 H           1.9200    1.2839    1.4430 H       1  UNL1        0.0328
     33 H           2.5968    2.1999    0.1190 H       1  UNL1        0.0328
     34 H           1.7466    0.4694   -1.5230 H       1  UNL1        0.0465
     35 H           1.0533   -0.4498   -0.1836 H       1  UNL1        0.0465
     36 H          -0.2552    1.6788    0.3100 H       1  UNL1        0.1487
     37 H          -2.9362    1.2293   -1.9077 H       1  UNL1        0.0475
     38 H          -2.0488    2.7637   -1.9698 H       1  UNL1        0.0475
     39 H          -5.4843   -2.3674    0.2755 H       1  UNL1        0.0639
     40 H          -7.7535   -2.2695   -0.6368 H       1  UNL1        0.0618
     41 H          -8.7980   -0.0869   -1.1836 H       1  UNL1        0.0618
     42 H          -7.5507    2.0139   -0.7799 H       1  UNL1        0.0618
     43 H          -5.3150    1.9762    0.1580 H       1  UNL1        0.0639
     44 H           4.5872    1.3623   -1.1344 H       1  UNL1        0.0621
     45 H           6.6235    0.0284   -1.0322 H       1  UNL1        0.0654
@<TRIPOS>BOND
     1     1     2    1
     2     2     3    1
     3     3     4   ar
     4     4     5   ar
     5     5     6   ar
     6     6     7    1
     7     7     8    1
     8     8     9    1
     9     9    10   am
    10    10    11    2
    11    10    12    1
    12    12    13    1
    13    13    14    1
    14    14    15   ar
    15    15    16   ar
    16    16    17   ar
    17    17    18   ar
    18    18    19    1
    19    19    20   ar
    20    20    21   ar
    21    21    22   ar
    22    22    23   ar
    23    23    24   ar
    24     6    25   ar
    25    25    26   ar
    26    26     3   ar
    27    18    14   ar
    28    24    19   ar
    29     1    27    1
    30     1    28    1
    31     1    29    1
    32     4    30    1
    33     5    31    1
    34     7    32    1
    35     7    33    1
    36     8    34    1
    37     8    35    1
    38     9    36    1
    39    12    37    1
    40    12    38    1
    41    20    39    1
    42    21    40    1
    43    22    41    1
    44    23    42    1
    45    24    43    1
    46    25    44    1
    47    26    45    1
