@<TRIPOS>MOLECULE
*****
 41 42 0 0 0
SMALL
GASTEIGER

@<TRIPOS>ATOM
      1 C           4.7847    2.8898    0.2381 C.3     1  UNL1        0.0790
      2 O           4.3995    1.5406    0.4540 O.3     1  UNL1       -0.4915
      3 C           3.1647    1.1496   -0.0029 C.ar    1  UNL1        0.1615
      4 C           2.2631    1.9914   -0.6626 C.ar    1  UNL1       -0.0160
      5 C           1.0246    1.5068   -1.0923 C.ar    1  UNL1       -0.0537
      6 C           0.6667    0.1735   -0.8693 C.ar    1  UNL1       -0.0297
      7 C          -0.6666   -0.3617   -1.3523 C.3     1  UNL1        0.0244
      8 N          -1.4788   -0.9576   -0.2755 N.3     1  UNL1       -0.2955
      9 C          -2.5337   -1.8193   -0.8210 C.3     1  UNL1       -0.0005
     10 C          -3.6733   -1.0523   -1.4962 C.3     1  UNL1       -0.0401
     11 C          -4.1353    0.1552   -0.6814 C.3     1  UNL1       -0.0505
     12 C          -3.5426    0.1398    0.7214 C.3     1  UNL1       -0.0375
     13 C          -2.0031    0.0593    0.6660 C.3     1  UNL1        0.0079
     14 C          -1.4572   -0.2459    2.0639 C.3     1  UNL1       -0.0495
     15 C           1.5758   -0.6727   -0.2133 C.ar    1  UNL1       -0.0119
     16 C           2.8154   -0.1953    0.2289 C.ar    1  UNL1        0.1618
     17 O           3.7509   -0.9598    0.8828 O.3     1  UNL1       -0.4914
     18 C           3.3679   -2.2726    1.2664 C.3     1  UNL1        0.0790
     19 H           4.8427    3.1184   -0.8311 H       1  UNL1        0.0660
     20 H           4.1112    3.5810    0.7556 H       1  UNL1        0.0660
     21 H           5.7853    3.0238    0.6604 H       1  UNL1        0.0660
     22 H           2.4934    3.0329   -0.8584 H       1  UNL1        0.0655
     23 H           0.3410    2.1818   -1.6022 H       1  UNL1        0.0622
     24 H          -0.4287   -1.1215   -2.1091 H       1  UNL1        0.0476
     25 H          -1.2277    0.4235   -1.8755 H       1  UNL1        0.0476
     26 H          -2.1121   -2.5486   -1.5241 H       1  UNL1        0.0427
     27 H          -2.9418   -2.4282   -0.0033 H       1  UNL1        0.0427
     28 H          -3.3701   -0.7189   -2.4960 H       1  UNL1        0.0278
     29 H          -4.5173   -1.7366   -1.6454 H       1  UNL1        0.0278
     30 H          -5.2298    0.1792   -0.6314 H       1  UNL1        0.0266
     31 H          -3.8277    1.0755   -1.1937 H       1  UNL1        0.0266
     32 H          -3.8452    1.0482    1.2565 H       1  UNL1        0.0280
     33 H          -3.9580   -0.7058    1.2850 H       1  UNL1        0.0280
     34 H          -1.6464    1.0603    0.3894 H       1  UNL1        0.0460
     35 H          -1.7765   -1.2346    2.4124 H       1  UNL1        0.0245
     36 H          -1.8135    0.4958    2.7872 H       1  UNL1        0.0245
     37 H          -0.3629   -0.2196    2.0798 H       1  UNL1        0.0245
     38 H           1.2784   -1.7048   -0.0541 H       1  UNL1        0.0658
     39 H           2.4873   -2.2567    1.9174 H       1  UNL1        0.0660
     40 H           3.2019   -2.9059    0.3889 H       1  UNL1        0.0660
     41 H           4.1939   -2.7081    1.8371 H       1  UNL1        0.0660
@<TRIPOS>BOND
     1     1     2    1
     2     2     3    1
     3     3     4   ar
     4     4     5   ar
     5     5     6   ar
     6     6     7    1
     7     7     8    1
     8     8     9    1
     9     9    10    1
    10    10    11    1
    11    11    12    1
    12    12    13    1
    13    13    14    1
    14     6    15   ar
    15    15    16   ar
    16    16    17    1
    17    17    18    1
    18    16     3   ar
    19    13     8    1
    20     1    19    1
    21     1    20    1
    22     1    21    1
    23     4    22    1
    24     5    23    1
    25     7    24    1
    26     7    25    1
    27     9    26    1
    28     9    27    1
    29    10    28    1
    30    10    29    1
    31    11    30    1
    32    11    31    1
    33    12    32    1
    34    12    33    1
    35    13    34    1
    36    14    35    1
    37    14    36    1
    38    14    37    1
    39    15    38    1
    40    18    39    1
    41    18    40    1
    42    18    41    1
