@<TRIPOS>MOLECULE
*****
 44 46 0 0 0
SMALL
GASTEIGER

@<TRIPOS>ATOM
      1 C           7.4028    2.4928    1.3454 C.3     1  UNL1        0.0788
      2 O           6.7025    2.2958    0.1227 O.3     1  UNL1       -0.4951
      3 C           5.7866    1.2800    0.0929 C.ar    1  UNL1        0.1201
      4 C           5.4453    0.4500    1.1608 C.ar    1  UNL1       -0.0196
      5 C           4.4872   -0.5565    0.9924 C.ar    1  UNL1       -0.0536
      6 C           3.8630   -0.7510   -0.2473 C.ar    1  UNL1       -0.0301
      7 C           2.8185   -1.8198   -0.4192 C.3     1  UNL1        0.0371
      8 N           1.4900   -1.2601   -0.3295 N.am    1  UNL1       -0.3072
      9 C           0.3887   -2.0681   -0.5134 C.2     1  UNL1        0.2443
     10 O           0.4682   -3.2508   -0.8270 O.2     1  UNL1       -0.2702
     11 C          -0.9424   -1.4442   -0.2766 C.ar    1  UNL1        0.0368
     12 C          -1.1620   -0.0726   -0.4145 C.ar    1  UNL1       -0.0479
     13 C          -2.4387    0.4642   -0.1888 C.ar    1  UNL1       -0.0396
     14 C          -3.5227   -0.3487    0.1694 C.ar    1  UNL1        0.0363
     15 N          -4.8207    0.1864    0.3978 N.am    1  UNL1       -0.2714
     16 C          -5.9354   -0.6288    0.8241 C.3     1  UNL1        0.0202
     17 C          -6.9730    0.3696    1.2907 C.3     1  UNL1       -0.0285
     18 C          -6.7284    1.5691    0.3978 C.3     1  UNL1        0.0259
     19 C          -5.2438    1.4974    0.1248 C.2     1  UNL1        0.2198
     20 O          -4.6051    2.4459   -0.3043 O.2     1  UNL1       -0.2753
     21 C          -3.2860   -1.7272    0.2913 C.ar    1  UNL1       -0.0396
     22 C          -2.0143   -2.2707    0.0661 C.ar    1  UNL1       -0.0479
     23 C           4.2004    0.0924   -1.3121 C.ar    1  UNL1       -0.0536
     24 C           5.1568    1.0965   -1.1404 C.ar    1  UNL1       -0.0196
     25 H           7.9834    1.6048    1.6174 H       1  UNL1        0.0660
     26 H           6.7179    2.7790    2.1502 H       1  UNL1        0.0660
     27 H           8.1067    3.3181    1.1990 H       1  UNL1        0.0660
     28 H           5.9035    0.5583    2.1383 H       1  UNL1        0.0654
     29 H           4.2333   -1.1914    1.8391 H       1  UNL1        0.0622
     30 H           2.9193   -2.5898    0.3554 H       1  UNL1        0.0512
     31 H           2.9341   -2.3238   -1.3856 H       1  UNL1        0.0512
     32 H           1.3857   -0.3896    0.1726 H       1  UNL1        0.1493
     33 H          -0.3665    0.5996   -0.7259 H       1  UNL1        0.0626
     34 H          -2.5502    1.5383   -0.3093 H       1  UNL1        0.0636
     35 H          -5.6596   -1.3007    1.6427 H       1  UNL1        0.0469
     36 H          -6.2976   -1.2062   -0.0342 H       1  UNL1        0.0469
     37 H          -6.7827    0.6449    2.3358 H       1  UNL1        0.0285
     38 H          -7.9945   -0.0151    1.2247 H       1  UNL1        0.0285
     39 H          -7.2669    1.4812   -0.5503 H       1  UNL1        0.0359
     40 H          -6.9914    2.5049    0.8969 H       1  UNL1        0.0359
     41 H          -4.0809   -2.4222    0.5458 H       1  UNL1        0.0636
     42 H          -1.8670   -3.3455    0.1571 H       1  UNL1        0.0626
     43 H           3.7213   -0.0285   -2.2817 H       1  UNL1        0.0622
     44 H           5.4146    1.7419   -1.9764 H       1  UNL1        0.0654
@<TRIPOS>BOND
     1     1     2    1
     2     2     3    1
     3     3     4   ar
     4     4     5   ar
     5     5     6   ar
     6     6     7    1
     7     7     8    1
     8     8     9   am
     9     9    10    2
    10     9    11    1
    11    11    12   ar
    12    12    13   ar
    13    13    14   ar
    14    14    15    1
    15    15    16    1
    16    16    17    1
    17    17    18    1
    18    18    19    1
    19    19    20    2
    20    14    21   ar
    21    21    22   ar
    22     6    23   ar
    23    23    24   ar
    24    24     3   ar
    25    22    11   ar
    26    19    15   am
    27     1    25    1
    28     1    26    1
    29     1    27    1
    30     4    28    1
    31     5    29    1
    32     7    30    1
    33     7    31    1
    34     8    32    1
    35    12    33    1
    36    13    34    1
    37    16    35    1
    38    16    36    1
    39    17    37    1
    40    17    38    1
    41    18    39    1
    42    18    40    1
    43    21    41    1
    44    22    42    1
    45    23    43    1
    46    24    44    1
