@<TRIPOS>MOLECULE
*****
 40 41 0 0 0
SMALL
GASTEIGER

@<TRIPOS>ATOM
      1 C           6.9948   -0.3893   -0.2708 C.3     1  UNL1        0.0788
      2 O           6.0628   -1.4149   -0.5920 O.3     1  UNL1       -0.4951
      3 C           4.7432   -1.0594   -0.6279 C.ar    1  UNL1        0.1201
      4 C           4.2308    0.2201   -0.4193 C.ar    1  UNL1       -0.0196
      5 C           2.8515    0.4445   -0.4880 C.ar    1  UNL1       -0.0536
      6 C           1.9660   -0.6057   -0.7675 C.ar    1  UNL1       -0.0302
      7 C           0.4796   -0.3557   -0.8320 C.3     1  UNL1        0.0341
      8 N          -0.0245   -0.0656    0.4982 N.pl3   1  UNL1       -0.3429
      9 C          -1.3030    0.3389    0.8488 C.2     1  UNL1        0.0080
     10 C          -1.6702    0.4275    2.1389 C.2     1  UNL1       -0.0025
     11 C          -3.0102    0.9058    2.5447 C.2     1  UNL1        0.1580
     12 O          -3.2877    0.9672    3.7410 O.2     1  UNL1       -0.2926
     13 C          -3.9711    1.3714    1.4748 C.3     1  UNL1        0.0154
     14 C          -3.7667    0.6303    0.1449 C.3     1  UNL1       -0.0228
     15 C          -4.6150    1.3061   -0.9483 C.3     1  UNL1       -0.0591
     16 C          -4.2317   -0.8364    0.2705 C.3     1  UNL1       -0.0591
     17 C          -2.2758    0.6939   -0.2626 C.3     1  UNL1       -0.0092
     18 C           2.4870   -1.8893   -0.9666 C.ar    1  UNL1       -0.0536
     19 C           3.8645   -2.1091   -0.9009 C.ar    1  UNL1       -0.0196
     20 H           6.8095    0.0111    0.7327 H       1  UNL1        0.0660
     21 H           6.9823    0.4057   -1.0231 H       1  UNL1        0.0660
     22 H           7.9959   -0.8322   -0.2724 H       1  UNL1        0.0660
     23 H           4.8743    1.0650   -0.1993 H       1  UNL1        0.0654
     24 H           2.4654    1.4455   -0.3126 H       1  UNL1        0.0622
     25 H           0.2913    0.4825   -1.5130 H       1  UNL1        0.0511
     26 H          -0.0333   -1.2335   -1.2410 H       1  UNL1        0.0511
     27 H           0.5345   -0.4588    1.2538 H       1  UNL1        0.1461
     28 H          -1.0002    0.1842    2.9535 H       1  UNL1        0.0667
     29 H          -4.9930    1.2177    1.8401 H       1  UNL1        0.0350
     30 H          -3.8189    2.4503    1.3503 H       1  UNL1        0.0350
     31 H          -4.3356    2.3577   -1.0742 H       1  UNL1        0.0235
     32 H          -5.6810    1.2732   -0.6994 H       1  UNL1        0.0235
     33 H          -4.4803    0.8094   -1.9152 H       1  UNL1        0.0235
     34 H          -5.2933   -0.8905    0.5348 H       1  UNL1        0.0235
     35 H          -3.6750   -1.3868    1.0351 H       1  UNL1        0.0235
     36 H          -4.1009   -1.3702   -0.6773 H       1  UNL1        0.0235
     37 H          -2.1297    0.0241   -1.1192 H       1  UNL1        0.0331
     38 H          -2.0226    1.7051   -0.6110 H       1  UNL1        0.0331
     39 H           1.8287   -2.7302   -1.1731 H       1  UNL1        0.0622
     40 H           4.2577   -3.1097   -1.0597 H       1  UNL1        0.0654
@<TRIPOS>BOND
     1     1     2    1
     2     2     3    1
     3     3     4   ar
     4     4     5   ar
     5     5     6   ar
     6     6     7    1
     7     7     8    1
     8     8     9    1
     9     9    10    2
    10    10    11    1
    11    11    12    2
    12    11    13    1
    13    13    14    1
    14    14    15    1
    15    14    16    1
    16    14    17    1
    17     6    18   ar
    18    18    19   ar
    19    19     3   ar
    20    17     9    1
    21     1    20    1
    22     1    21    1
    23     1    22    1
    24     4    23    1
    25     5    24    1
    26     7    25    1
    27     7    26    1
    28     8    27    1
    29    10    28    1
    30    13    29    1
    31    13    30    1
    32    15    31    1
    33    15    32    1
    34    15    33    1
    35    16    34    1
    36    16    35    1
    37    16    36    1
    38    17    37    1
    39    17    38    1
    40    18    39    1
    41    19    40    1
