@<TRIPOS>MOLECULE
*****
 38 39 0 0 0
SMALL
GASTEIGER

@<TRIPOS>ATOM
      1 C          -5.7370   -1.1768    1.8215 C.3     1  UNL1        0.0790
      2 O          -5.2978   -0.8441    0.5117 O.3     1  UNL1       -0.4915
      3 C          -3.9479   -0.7846    0.2926 C.ar    1  UNL1        0.1616
      4 C          -2.9733   -1.0640    1.2530 C.ar    1  UNL1       -0.0146
      5 C          -1.6095   -0.9343    0.9503 C.ar    1  UNL1       -0.0368
      6 C          -1.1974   -0.5141   -0.3138 C.ar    1  UNL1        0.0375
      7 N           0.1485   -0.3486   -0.6809 N.am    1  UNL1       -0.2776
      8 C           1.2691   -0.5488    0.0965 C.2     1  UNL1        0.3031
      9 O           1.3505   -0.9114    1.2613 O.2     1  UNL1       -0.2648
     10 C           2.5696   -0.2520   -0.6834 C.2     1  UNL1        0.2996
     11 O           2.5085    0.1330   -1.8437 O.2     1  UNL1       -0.2652
     12 N           3.7138   -0.4531    0.0487 N.am    1  UNL1       -0.3005
     13 C           5.0107   -0.0414   -0.4237 C.3     1  UNL1        0.0702
     14 C           5.2815    1.3282    0.0738 C.ar    1  UNL1        0.1218
     15 C           5.1361    2.5838   -0.4804 C.ar    1  UNL1       -0.0192
     16 C           5.5605    3.5063    0.5055 C.ar    1  UNL1       -0.0236
     17 C           5.9323    2.7568    1.5973 C.ar    1  UNL1        0.0921
     18 O           5.7666    1.4329    1.3458 O.2     1  UNL1       -0.4662
     19 C          -2.1672   -0.2401   -1.2811 C.ar    1  UNL1        0.0049
     20 C          -3.5271   -0.3984   -0.9890 C.ar    1  UNL1        0.1632
     21 O          -4.3982   -0.0856   -2.0054 O.3     1  UNL1       -0.4914
     22 C          -5.1284   -1.2319   -2.4406 C.3     1  UNL1        0.0790
     23 H          -5.4348   -2.1945    2.0883 H       1  UNL1        0.0660
     24 H          -5.3796   -0.4495    2.5576 H       1  UNL1        0.0660
     25 H          -6.8309   -1.1437    1.8251 H       1  UNL1        0.0660
     26 H          -3.2335   -1.3819    2.2579 H       1  UNL1        0.0656
     27 H          -0.8946   -1.1645    1.7344 H       1  UNL1        0.0637
     28 H           0.3467   -0.0334   -1.6289 H       1  UNL1        0.1553
     29 H           3.5892   -0.6342    1.0414 H       1  UNL1        0.1496
     30 H           5.7476   -0.7501   -0.0323 H       1  UNL1        0.0543
     31 H           5.0431   -0.0730   -1.5176 H       1  UNL1        0.0543
     32 H           4.7636    2.8008   -1.4728 H       1  UNL1        0.0652
     33 H           5.5879    4.5846    0.4331 H       1  UNL1        0.0649
     34 H           6.3140    3.0014    2.5785 H       1  UNL1        0.1029
     35 H          -1.8857    0.0939   -2.2766 H       1  UNL1        0.0674
     36 H          -5.5483   -1.0044   -3.4260 H       1  UNL1        0.0660
     37 H          -5.9664   -1.4501   -1.7710 H       1  UNL1        0.0660
     38 H          -4.4823   -2.1132   -2.5451 H       1  UNL1        0.0660
@<TRIPOS>BOND
     1     1     2    1
     2     2     3    1
     3     3     4   ar
     4     4     5   ar
     5     5     6   ar
     6     6     7    1
     7     7     8   am
     8     8     9    2
     9     8    10    1
    10    10    11    2
    11    10    12   am
    12    12    13    1
    13    13    14    1
    14    14    15   ar
    15    15    16   ar
    16    16    17   ar
    17    17    18   ar
    18     6    19   ar
    19    19    20   ar
    20    20    21    1
    21    21    22    1
    22    20     3   ar
    23    18    14   ar
    24     1    23    1
    25     1    24    1
    26     1    25    1
    27     4    26    1
    28     5    27    1
    29     7    28    1
    30    12    29    1
    31    13    30    1
    32    13    31    1
    33    15    32    1
    34    16    33    1
    35    17    34    1
    36    19    35    1
    37    22    36    1
    38    22    37    1
    39    22    38    1
