@<TRIPOS>MOLECULE
*****
 39 40 0 0 0
SMALL
GASTEIGER

@<TRIPOS>ATOM
      1 C          -5.3612   -1.6164   -1.4081 C.3     1  UNL1        0.0788
      2 O          -5.0703   -1.3105   -0.0507 O.3     1  UNL1       -0.4950
      3 C          -3.7611   -1.0795    0.2727 C.ar    1  UNL1        0.1237
      4 C          -3.5438   -0.7731    1.6175 C.ar    1  UNL1       -0.0180
      5 C          -2.2570   -0.5172    2.0966 C.ar    1  UNL1       -0.0334
      6 C          -1.1712   -0.5667    1.2264 C.ar    1  UNL1        0.0759
      7 N           0.1583   -0.3231    1.6212 N.am    1  UNL1       -0.2798
      8 C           0.6479    0.0479    2.8569 C.2     1  UNL1        0.2550
      9 O          -0.0019    0.1786    3.8900 O.2     1  UNL1       -0.2717
     10 C           2.1703    0.2383    2.8525 C.3     1  UNL1        0.1687
     11 O           2.7354    0.3352    1.5388 O.3     1  UNL1       -0.4517
     12 C           2.7000    1.5761    0.9917 C.2     1  UNL1        0.3397
     13 O           2.2802    2.5848    1.5317 O.2     1  UNL1       -0.2449
     14 C           3.1981    1.5402   -0.4068 C.ar    1  UNL1        0.0619
     15 C           3.7431    0.3891   -0.9789 C.ar    1  UNL1       -0.0296
     16 C           4.1583    0.4551   -2.2965 C.ar    1  UNL1        0.0283
     17 N           4.0635    1.5659   -3.0572 N.ar    1  UNL1       -0.2632
     18 C           3.5390    2.6669   -2.4780 C.ar    1  UNL1        0.0283
     19 C           3.0962    2.7049   -1.1694 C.ar    1  UNL1       -0.0296
     20 C          -1.3821   -0.8673   -0.1369 C.ar    1  UNL1        0.1447
     21 O          -0.2433   -0.8834   -0.9142 O.3     1  UNL1       -0.4931
     22 C          -0.4220   -0.9832   -2.3221 C.3     1  UNL1        0.0789
     23 C          -2.6761   -1.1275   -0.6060 C.ar    1  UNL1        0.0236
     24 H          -5.0849   -0.7872   -2.0677 H       1  UNL1        0.0660
     25 H          -6.4422   -1.7637   -1.4936 H       1  UNL1        0.0660
     26 H          -4.8731   -2.5470   -1.7159 H       1  UNL1        0.0660
     27 H          -4.3861   -0.7332    2.3048 H       1  UNL1        0.0655
     28 H          -2.1371   -0.2845    3.1497 H       1  UNL1        0.0638
     29 H           0.8322   -0.4100    0.8662 H       1  UNL1        0.1550
     30 H           2.6113   -0.6444    3.3274 H       1  UNL1        0.0796
     31 H           2.4313    1.1111    3.4618 H       1  UNL1        0.0796
     32 H           3.8494   -0.5382   -0.4278 H       1  UNL1        0.0641
     33 H           4.5915   -0.4093   -2.7927 H       1  UNL1        0.0830
     34 H           3.4815    3.5449   -3.1156 H       1  UNL1        0.0830
     35 H           2.6784    3.6185   -0.7576 H       1  UNL1        0.0641
     36 H          -0.8237   -1.9638   -2.5968 H       1  UNL1        0.0660
     37 H           0.5622   -0.8841   -2.7903 H       1  UNL1        0.0660
     38 H          -1.0539   -0.1735   -2.7016 H       1  UNL1        0.0660
     39 H          -2.8373   -1.3708   -1.6472 H       1  UNL1        0.0691
@<TRIPOS>BOND
     1     1     2    1
     2     2     3    1
     3     3     4   ar
     4     4     5   ar
     5     5     6   ar
     6     6     7    1
     7     7     8   am
     8     8     9    2
     9     8    10    1
    10    10    11    1
    11    11    12    1
    12    12    13    2
    13    12    14    1
    14    14    15   ar
    15    15    16   ar
    16    16    17   ar
    17    17    18   ar
    18    18    19   ar
    19     6    20   ar
    20    20    21    1
    21    21    22    1
    22    20    23   ar
    23    23     3   ar
    24    19    14   ar
    25     1    24    1
    26     1    25    1
    27     1    26    1
    28     4    27    1
    29     5    28    1
    30     7    29    1
    31    10    30    1
    32    10    31    1
    33    15    32    1
    34    16    33    1
    35    18    34    1
    36    19    35    1
    37    22    36    1
    38    22    37    1
    39    22    38    1
    40    23    39    1
