@<TRIPOS>MOLECULE
*****
 43 44 0 0 0
SMALL
GASTEIGER

@<TRIPOS>ATOM
      1 C           6.8718    1.7852   -0.4368 C.3     1  UNL1        0.0790
      2 O           6.3090    0.6328    0.1737 O.3     1  UNL1       -0.4915
      3 C           4.9449    0.4898    0.1236 C.ar    1  UNL1        0.1616
      4 C           4.0781    1.3850   -0.5071 C.ar    1  UNL1       -0.0146
      5 C           2.6970    1.1580   -0.5088 C.ar    1  UNL1       -0.0367
      6 C           2.1616    0.0371    0.1217 C.ar    1  UNL1        0.0385
      7 N           0.7830   -0.2640    0.1526 N.am    1  UNL1       -0.2691
      8 C          -0.2700    0.5332   -0.2738 C.2     1  UNL1        0.3082
      9 O          -0.1637    1.6828   -0.6793 O.2     1  UNL1       -0.2521
     10 N          -1.4628   -0.1633   -0.1767 N.am    1  UNL1       -0.2661
     11 C          -2.7731    0.3143   -0.4053 C.ar    1  UNL1        0.0770
     12 C          -3.0845    1.6613   -0.5882 C.ar    1  UNL1       -0.0366
     13 C          -4.4104    2.0597   -0.7832 C.ar    1  UNL1       -0.0569
     14 C          -5.4448    1.1188   -0.7941 C.ar    1  UNL1       -0.0469
     15 C          -6.8704    1.5637   -0.9432 C.3     1  UNL1       -0.0396
     16 C          -5.1387   -0.2332   -0.5942 C.ar    1  UNL1       -0.0150
     17 C          -3.8098   -0.6398   -0.4252 C.ar    1  UNL1        0.1482
     18 O          -3.4273   -1.9466   -0.2318 O.3     1  UNL1       -0.4323
     19 C          -4.2326   -2.9082   -0.8951 C.3     1  UNL1        0.3893
     20 F          -5.3132   -3.1810   -0.1244 F       1  UNL1       -0.1663
     21 F          -3.5054   -4.0526   -0.9609 F       1  UNL1       -0.1663
     22 C           3.0305   -0.8670    0.7497 C.ar    1  UNL1        0.0050
     23 C           4.4155   -0.6495    0.7585 C.ar    1  UNL1        0.1632
     24 O           5.3294   -1.4856    1.3525 O.3     1  UNL1       -0.4914
     25 C           4.8385   -2.6266    2.0398 C.3     1  UNL1        0.0790
     26 H           6.5076    2.7024    0.0375 H       1  UNL1        0.0660
     27 H           6.6816    1.7933   -1.5150 H       1  UNL1        0.0660
     28 H           7.9557    1.7448   -0.2917 H       1  UNL1        0.0660
     29 H           4.4398    2.2742   -1.0127 H       1  UNL1        0.0656
     30 H           2.0681    1.8794   -1.0217 H       1  UNL1        0.0637
     31 H           0.5219   -1.0974    0.6565 H       1  UNL1        0.1564
     32 H          -1.4063   -1.1643   -0.0475 H       1  UNL1        0.1565
     33 H          -2.3191    2.4312   -0.5682 H       1  UNL1        0.0637
     34 H          -4.6272    3.1185   -0.9129 H       1  UNL1        0.0621
     35 H          -6.9364    2.4584   -1.5713 H       1  UNL1        0.0278
     36 H          -7.4740    0.7857   -1.4226 H       1  UNL1        0.0278
     37 H          -7.2970    1.7875    0.0393 H       1  UNL1        0.0278
     38 H          -5.9566   -0.9476   -0.5481 H       1  UNL1        0.0657
     39 H          -4.5338   -2.6208   -1.9090 H       1  UNL1        0.1520
     40 H           2.6118   -1.7422    1.2327 H       1  UNL1        0.0674
     41 H           4.1865   -2.3378    2.8706 H       1  UNL1        0.0660
     42 H           4.3280   -3.3107    1.3541 H       1  UNL1        0.0660
     43 H           5.6969   -3.1588    2.4611 H       1  UNL1        0.0660
@<TRIPOS>BOND
     1     1     2    1
     2     2     3    1
     3     3     4   ar
     4     4     5   ar
     5     5     6   ar
     6     6     7    1
     7     7     8   am
     8     8     9    2
     9     8    10   am
    10    10    11    1
    11    11    12   ar
    12    12    13   ar
    13    13    14   ar
    14    14    15    1
    15    14    16   ar
    16    16    17   ar
    17    17    18    1
    18    18    19    1
    19    19    20    1
    20    19    21    1
    21     6    22   ar
    22    22    23   ar
    23    23    24    1
    24    24    25    1
    25    23     3   ar
    26    17    11   ar
    27     1    26    1
    28     1    27    1
    29     1    28    1
    30     4    29    1
    31     5    30    1
    32     7    31    1
    33    10    32    1
    34    12    33    1
    35    13    34    1
    36    15    35    1
    37    15    36    1
    38    15    37    1
    39    16    38    1
    40    19    39    1
    41    22    40    1
    42    25    41    1
    43    25    42    1
    44    25    43    1
