@<TRIPOS>MOLECULE
*****
 33 35 0 0 0
SMALL
GASTEIGER

@<TRIPOS>ATOM
      1 C          -6.3095    1.6981   -0.9266 C.3     1  UNL1        0.0788
      2 O          -6.0539    0.3032   -0.8171 O.3     1  UNL1       -0.4951
      3 C          -4.7604   -0.0688   -0.5811 C.ar    1  UNL1        0.1202
      4 C          -4.5541   -1.4430   -0.4820 C.ar    1  UNL1       -0.0182
      5 C          -3.2748   -1.9565   -0.2418 C.ar    1  UNL1       -0.0370
      6 C          -2.1660   -1.1093   -0.0936 C.ar    1  UNL1        0.0328
      7 N          -0.9088   -1.6867    0.1445 N.pl3   1  UNL1       -0.2956
      8 C           0.3048   -1.0889    0.3142 C.2     1  UNL1        0.1557
      9 N           0.6349    0.1545    0.2960 N.am    1  UNL1       -0.1540
     10 C           1.9751    0.3855    0.5204 C.2     1  UNL1        0.2761
     11 O           2.4454    1.4987    0.6855 O.2     1  UNL1       -0.2674
     12 C           2.7483   -0.8960    0.6102 C.2     1  UNL1        0.0823
     13 C           4.0682   -1.1029    0.7105 C.2     1  UNL1       -0.0005
     14 C           5.0484   -0.0808    0.6365 C.ar    1  UNL1        0.1289
     15 C           6.2418    0.0278    1.3419 C.ar    1  UNL1       -0.0164
     16 C           6.9022    1.1999    0.9024 C.ar    1  UNL1       -0.0233
     17 C           6.0957    1.7408   -0.0650 C.ar    1  UNL1        0.0925
     18 O           4.9966    0.9714   -0.2466 O.2     1  UNL1       -0.4635
     19 S           1.6239   -2.2129    0.5978 S.3     1  UNL1       -0.0513
     20 C          -2.3893    0.2671   -0.1962 C.ar    1  UNL1       -0.0370
     21 C          -3.6712    0.7854   -0.4371 C.ar    1  UNL1       -0.0182
     22 H          -6.0694    2.2180    0.0068 H       1  UNL1        0.0660
     23 H          -7.3798    1.8279   -1.1138 H       1  UNL1        0.0660
     24 H          -5.7683    2.1334   -1.7732 H       1  UNL1        0.0660
     25 H          -5.3958   -2.1224   -0.5927 H       1  UNL1        0.0655
     26 H          -3.1610   -3.0356   -0.1726 H       1  UNL1        0.0637
     27 H          -0.9057   -2.6962    0.2011 H       1  UNL1        0.1539
     28 H           4.4446   -2.1145    0.8353 H       1  UNL1        0.0667
     29 H           6.5862   -0.6607    2.1013 H       1  UNL1        0.0655
     30 H           7.8450    1.5995    1.2474 H       1  UNL1        0.0649
     31 H           6.1563    2.6210   -0.6895 H       1  UNL1        0.1029
     32 H          -1.5752    0.9793   -0.0917 H       1  UNL1        0.0637
     33 H          -3.7741    1.8635   -0.5050 H       1  UNL1        0.0655
@<TRIPOS>BOND
     1     1     2    1
     2     2     3    1
     3     3     4   ar
     4     4     5   ar
     5     5     6   ar
     6     6     7    1
     7     7     8    1
     8     8     9    2
     9     9    10    1
    10    10    11    2
    11    10    12    1
    12    12    13    2
    13    13    14    1
    14    14    15   ar
    15    15    16   ar
    16    16    17   ar
    17    17    18   ar
    18    12    19    1
    19     6    20   ar
    20    20    21   ar
    21    21     3   ar
    22    19     8    1
    23    18    14   ar
    24     1    22    1
    25     1    23    1
    26     1    24    1
    27     4    25    1
    28     5    26    1
    29     7    27    1
    30    13    28    1
    31    15    29    1
    32    16    30    1
    33    17    31    1
    34    20    32    1
    35    21    33    1
