@<TRIPOS>MOLECULE
*****
 41 43 0 0 0
SMALL
GASTEIGER

@<TRIPOS>ATOM
      1 C           6.5254    1.2961   -2.6091 C.3     1  UNL1        0.0788
      2 O           6.1679    0.2748   -1.6870 O.3     1  UNL1       -0.4951
      3 C           4.8900    0.3026   -1.2020 C.ar    1  UNL1        0.1202
      4 C           4.5874   -0.7038   -0.2859 C.ar    1  UNL1       -0.0182
      5 C           3.3134   -0.7923    0.2891 C.ar    1  UNL1       -0.0371
      6 C           2.3175    0.1357   -0.0204 C.ar    1  UNL1        0.0326
      7 N           1.0027    0.0691    0.4779 N.pl3   1  UNL1       -0.2988
      8 C           0.4725   -0.5663    1.6272 C.ar    1  UNL1        0.1351
      9 N           1.2894   -1.2284    2.4832 N.ar    1  UNL1       -0.2394
     10 C           0.7505   -1.8515    3.5545 C.ar    1  UNL1        0.0297
     11 C          -0.6019   -1.8692    3.8350 C.ar    1  UNL1       -0.0427
     12 C          -1.4542   -1.2104    2.9599 C.ar    1  UNL1       -0.0449
     13 C          -0.9182   -0.5641    1.8366 C.ar    1  UNL1        0.0770
     14 C          -1.8142    0.1687    0.9069 C.2     1  UNL1        0.2516
     15 O          -1.4478    1.2673    0.5029 O.2     1  UNL1       -0.2697
     16 N          -2.9795   -0.4995    0.5771 N.am    1  UNL1       -0.2814
     17 C          -4.0314   -0.0327   -0.2391 C.ar    1  UNL1        0.0337
     18 C          -5.0764   -0.9266   -0.5095 C.ar    1  UNL1       -0.0405
     19 C          -6.1589   -0.5400   -1.3042 C.ar    1  UNL1       -0.0600
     20 C          -6.2084    0.7460   -1.8343 C.ar    1  UNL1       -0.0616
     21 C          -5.1766    1.6427   -1.5680 C.ar    1  UNL1       -0.0600
     22 C          -4.0928    1.2556   -0.7727 C.ar    1  UNL1       -0.0405
     23 C           2.6258    1.1246   -0.9682 C.ar    1  UNL1       -0.0371
     24 C           3.8993    1.2172   -1.5470 C.ar    1  UNL1       -0.0182
     25 H           6.4435    2.2880   -2.1524 H       1  UNL1        0.0660
     26 H           7.5727    1.1436   -2.8873 H       1  UNL1        0.0660
     27 H           5.9256    1.2302   -3.5229 H       1  UNL1        0.0660
     28 H           5.3454   -1.4348   -0.0168 H       1  UNL1        0.0655
     29 H           3.1189   -1.6082    0.9780 H       1  UNL1        0.0637
     30 H           0.4650    0.9177    0.2824 H       1  UNL1        0.1536
     31 H           1.4660   -2.3490    4.2039 H       1  UNL1        0.0830
     32 H          -0.9780   -2.3737    4.7182 H       1  UNL1        0.0633
     33 H          -2.5190   -1.1775    3.1726 H       1  UNL1        0.0627
     34 H          -3.0659   -1.4574    0.8925 H       1  UNL1        0.1551
     35 H          -5.0631   -1.9372   -0.1106 H       1  UNL1        0.0636
     36 H          -6.9617   -1.2432   -1.5099 H       1  UNL1        0.0618
     37 H          -7.0480    1.0505   -2.4536 H       1  UNL1        0.0618
     38 H          -5.2103    2.6489   -1.9782 H       1  UNL1        0.0618
     39 H          -3.3146    1.9888   -0.5867 H       1  UNL1        0.0636
     40 H           1.8674    1.8449   -1.2676 H       1  UNL1        0.0637
     41 H           4.0749    2.0109   -2.2646 H       1  UNL1        0.0655
@<TRIPOS>BOND
     1     1     2    1
     2     2     3    1
     3     3     4   ar
     4     4     5   ar
     5     5     6   ar
     6     6     7    1
     7     7     8    1
     8     8     9   ar
     9     9    10   ar
    10    10    11   ar
    11    11    12   ar
    12    12    13   ar
    13    13    14    1
    14    14    15    2
    15    14    16   am
    16    16    17    1
    17    17    18   ar
    18    18    19   ar
    19    19    20   ar
    20    20    21   ar
    21    21    22   ar
    22     6    23   ar
    23    23    24   ar
    24    24     3   ar
    25    13     8   ar
    26    22    17   ar
    27     1    25    1
    28     1    26    1
    29     1    27    1
    30     4    28    1
    31     5    29    1
    32     7    30    1
    33    10    31    1
    34    11    32    1
    35    12    33    1
    36    16    34    1
    37    18    35    1
    38    19    36    1
    39    20    37    1
    40    21    38    1
    41    22    39    1
    42    23    40    1
    43    24    41    1
