@<TRIPOS>MOLECULE
*****
 35 36 0 0 0
SMALL
GASTEIGER

@<TRIPOS>ATOM
      1 C           3.7433   -0.2473    3.2532 C.3     1  UNL1        0.0788
      2 O           2.4681   -0.6429    2.7648 O.3     1  UNL1       -0.4951
      3 C           2.0728   -0.1199    1.5644 C.ar    1  UNL1        0.1209
      4 C           2.7909    0.7972    0.7950 C.ar    1  UNL1       -0.0165
      5 C           2.2720    1.2514   -0.4207 C.ar    1  UNL1       -0.0158
      6 C           1.0386    0.7815   -0.8747 C.ar    1  UNL1        0.1295
      7 O           0.5688    1.2730   -2.0663 O.3     1  UNL1       -0.4944
      8 C           0.9390    0.3966   -3.1334 C.3     1  UNL1        0.0788
      9 C           0.2899   -0.1095   -0.0966 C.ar    1  UNL1        0.0462
     10 C          -1.0200   -0.5846   -0.5052 C.ar    1  UNL1        0.0857
     11 N          -1.2035   -1.9124   -0.8510 N.ar    1  UNL1       -0.2439
     12 C          -2.4626   -2.1212   -1.1651 C.ar    1  UNL1        0.0762
     13 C          -3.0175   -3.4371   -1.5809 C.3     1  UNL1       -0.0159
     14 S          -3.4871   -0.7475   -1.0711 S.2     1  UNL1       -0.0762
     15 C          -2.1564    0.2069   -0.5479 C.ar    1  UNL1        0.0281
     16 C          -2.3439    1.6534   -0.2144 C.3     1  UNL1        0.0782
     17 C          -2.3208    1.8678    1.2800 C.2     1  UNL1        0.3097
     18 O          -2.4180    1.0381    2.1686 O.2     1  UNL1       -0.2506
     19 O          -2.2132    3.1773    1.5982 O.3     1  UNL1       -0.4804
     20 C           0.8260   -0.5673    1.1145 C.ar    1  UNL1       -0.0072
     21 H           3.9132   -0.7650    4.2022 H       1  UNL1        0.0660
     22 H           3.7727    0.8292    3.4514 H       1  UNL1        0.0660
     23 H           4.5405   -0.5450    2.5640 H       1  UNL1        0.0660
     24 H           3.7555    1.1791    1.1118 H       1  UNL1        0.0655
     25 H           2.8312    1.9685   -1.0154 H       1  UNL1        0.0655
     26 H           0.5478    0.8206   -4.0631 H       1  UNL1        0.0660
     27 H           2.0285    0.3270   -3.2255 H       1  UNL1        0.0660
     28 H           0.5041   -0.6005   -3.0083 H       1  UNL1        0.0660
     29 H          -3.7998   -3.7659   -0.8896 H       1  UNL1        0.0298
     30 H          -3.4389   -3.3809   -2.5896 H       1  UNL1        0.0298
     31 H          -2.2314   -4.1990   -1.5866 H       1  UNL1        0.0298
     32 H          -3.2997    2.0306   -0.5947 H       1  UNL1        0.0432
     33 H          -1.5443    2.2477   -0.6674 H       1  UNL1        0.0432
     34 H          -2.2082    3.1749    2.5789 H       1  UNL1        0.2951
     35 H           0.2622   -1.2747    1.7205 H       1  UNL1        0.0662
@<TRIPOS>BOND
     1     1     2    1
     2     2     3    1
     3     3     4   ar
     4     4     5   ar
     5     5     6   ar
     6     6     7    1
     7     7     8    1
     8     6     9   ar
     9     9    10    1
    10    10    11   ar
    11    11    12   ar
    12    12    13    1
    13    12    14   ar
    14    14    15   ar
    15    15    16    1
    16    16    17    1
    17    17    18    2
    18    17    19    1
    19     9    20   ar
    20    20     3   ar
    21    15    10   ar
    22     1    21    1
    23     1    22    1
    24     1    23    1
    25     4    24    1
    26     5    25    1
    27     8    26    1
    28     8    27    1
    29     8    28    1
    30    13    29    1
    31    13    30    1
    32    13    31    1
    33    16    32    1
    34    16    33    1
    35    19    34    1
    36    20    35    1
