@<TRIPOS>MOLECULE
*****
 46 53 0 0 0
SMALL
GASTEIGER

@<TRIPOS>ATOM
      1 SI         -7.0583   -0.4719   -0.3126 Si      1  UNL1        0.0000
      2 C          -5.7539   -1.8364   -0.0017 C.2     1  UNL1        0.0000
      3 C          -4.5061   -1.3209    0.0556 C.2     1  UNL1        0.0000
      4 C          -4.4286    0.1006   -0.1214 C.ar    1  UNL1        0.0000
      5 C          -5.6564    0.7825   -0.3389 C.ar    1  UNL1        0.0000
      6 C          -5.5436    2.1267   -0.5144 C.ar    1  UNL1        0.0000
      7 S          -3.8810    2.5801   -0.4149 S.2     1  UNL1        0.0000
      8 C          -3.3505    0.9542   -0.1281 C.ar    1  UNL1        0.0000
      9 C          -1.9358    0.6921    0.0538 C.ar    1  UNL1        0.0000
     10 C          -0.9620    0.8614   -0.9392 C.ar    1  UNL1        0.0000
     11 C           0.4464    0.5731   -0.7327 C.ar    1  UNL1        0.0000
     12 C           1.4060    0.7787   -1.7436 C.ar    1  UNL1        0.0000
     13 C           1.2004    1.2691   -3.0108 C.ar    1  UNL1        0.0000
     14 O           2.3828    1.3267   -3.6890 O.2     1  UNL1        0.0000
     15 C           3.3535    0.8692   -2.8464 C.ar    1  UNL1        0.0000
     16 C           2.8016    0.5216   -1.6380 C.ar    1  UNL1        0.0000
     17 C           3.4458    0.0005   -0.5153 C.ar    1  UNL1        0.0000
     18 C           4.8162   -0.2707   -0.4207 C.ar    1  UNL1        0.0000
     19 O           5.7744   -0.0538   -1.3707 O.2     1  UNL1        0.0000
     20 C           6.9592   -0.4637   -0.8508 C.ar    1  UNL1        0.0000
     21 C           6.7847   -0.9488    0.4234 C.ar    1  UNL1        0.0000
     22 C           5.3997   -0.8276    0.7093 C.ar    1  UNL1        0.0000
     23 C           4.5725   -1.1402    1.7929 C.ar    1  UNL1        0.0000
     24 C           3.1907   -0.8633    1.7037 C.ar    1  UNL1        0.0000
     25 C           2.5608   -0.2669    0.5842 C.ar    1  UNL1        0.0000
     26 C           1.0888    0.0548    0.4868 C.ar    1  UNL1        0.0000
     27 C           0.0351   -0.0432    1.4662 C.ar    1  UNL1        0.0000
     28 C           0.1391   -0.3577    2.8040 C.ar    1  UNL1        0.0000
     29 N          -1.1196   -0.3190    3.3670 N.ar    1  UNL1        0.0000
     30 C          -2.0420    0.0572    2.4281 C.ar    1  UNL1        0.0000
     31 C          -1.3654    0.2493    1.2465 C.ar    1  UNL1        0.0000
     32 H          -7.9698   -0.3363    0.8510 H       1  UNL1        0.0000
     33 H          -7.7271   -0.6635   -1.6235 H       1  UNL1        0.0000
     34 H          -6.0448   -2.8692    0.1014 H       1  UNL1        0.0000
     35 H          -3.6211   -1.9256    0.2204 H       1  UNL1        0.0000
     36 H          -6.3074    2.8705   -0.6959 H       1  UNL1        0.0000
     37 H          -1.2926    1.2235   -1.9115 H       1  UNL1        0.0000
     38 H           0.3399    1.6094   -3.5688 H       1  UNL1        0.0000
     39 H           4.3519    0.8578   -3.2606 H       1  UNL1        0.0000
     40 H           7.8173   -0.3495   -1.4985 H       1  UNL1        0.0000
     41 H           7.5581   -1.3438    1.0661 H       1  UNL1        0.0000
     42 H           4.9783   -1.5992    2.6900 H       1  UNL1        0.0000
     43 H           2.6064   -1.1737    2.5592 H       1  UNL1        0.0000
     44 H           0.9653   -0.5841    3.4556 H       1  UNL1        0.0000
     45 H          -1.3248   -0.5047    4.3404 H       1  UNL1        0.0000
     46 H          -3.0841    0.1745    2.6948 H       1  UNL1        0.0000
@<TRIPOS>BOND
     1     1     2    1
     2     2     3    2
     3     3     4    1
     4     4     5   ar
     5     5     6   ar
     6     6     7   ar
     7     7     8   ar
     8     8     9    1
     9     9    10   ar
    10    10    11   ar
    11    11    12   ar
    12    12    13   ar
    13    13    14   ar
    14    14    15   ar
    15    15    16   ar
    16    16    17   ar
    17    17    18   ar
    18    18    19   ar
    19    19    20   ar
    20    20    21   ar
    21    21    22   ar
    22    22    23   ar
    23    23    24   ar
    24    24    25   ar
    25    25    26   ar
    26    26    27   ar
    27    27    28   ar
    28    28    29   ar
    29    29    30   ar
    30    30    31   ar
    31     5     1    1
    32    31     9   ar
    33     8     4   ar
    34    26    11   ar
    35    31    27   ar
    36    16    12   ar
    37    25    17   ar
    38    22    18   ar
    39     1    32    1
    40     1    33    1
    41     2    34    1
    42     3    35    1
    43     6    36    1
    44    10    37    1
    45    13    38    1
    46    15    39    1
    47    20    40    1
    48    21    41    1
    49    23    42    1
    50    24    43    1
    51    28    44    1
    52    29    45    1
    53    30    46    1
