@<TRIPOS>MOLECULE
*****
 25 25 0 0 0
SMALL
GASTEIGER

@<TRIPOS>ATOM
      1 C           3.7557    0.7454   -1.1932 C.3     1  UNL1        0.0788
      2 O           3.1373   -0.5050   -0.9120 O.3     1  UNL1       -0.4950
      3 C           1.8410   -0.4728   -0.4810 C.ar    1  UNL1        0.1222
      4 C           1.2855   -1.7226   -0.2067 C.ar    1  UNL1       -0.0164
      5 C          -0.0340   -1.8420    0.2448 C.ar    1  UNL1       -0.0145
      6 C          -0.8251   -0.7056    0.4338 C.ar    1  UNL1        0.1466
      7 O          -2.1248   -0.7412    0.8560 O.3     1  UNL1       -0.4931
      8 C          -2.6115   -1.9669    1.3893 C.3     1  UNL1        0.0789
      9 C          -0.2639    0.5465    0.1475 C.ar    1  UNL1        0.1498
     10 S          -1.2029    2.0274    0.3779 S.O2    1  UNL1        0.0595
     11 N          -2.4695    1.8589   -0.7120 N.3     1  UNL1       -0.2034
     12 O          -0.4384    3.1485   -0.1265 O.2     1  UNL1       -0.1531
     13 O          -1.7772    2.0444    1.7026 O.2     1  UNL1       -0.1531
     14 C           1.0627    0.6666   -0.3029 C.ar    1  UNL1        0.0100
     15 H           4.7815    0.5452   -1.5175 H       1  UNL1        0.0660
     16 H           3.2431    1.2638   -2.0101 H       1  UNL1        0.0660
     17 H           3.8060    1.3713   -0.2961 H       1  UNL1        0.0660
     18 H           1.8868   -2.6185   -0.3477 H       1  UNL1        0.0655
     19 H          -0.4118   -2.8423    0.4306 H       1  UNL1        0.0656
     20 H          -3.6110   -1.7809    1.7940 H       1  UNL1        0.0660
     21 H          -1.9806   -2.3239    2.2102 H       1  UNL1        0.0660
     22 H          -2.7065   -2.7235    0.6039 H       1  UNL1        0.0660
     23 H          -3.3446    1.7433   -0.2012 H       1  UNL1        0.1442
     24 H          -2.4614    2.6290   -1.3790 H       1  UNL1        0.1442
     25 H           1.4636    1.6550   -0.5046 H       1  UNL1        0.0675
@<TRIPOS>BOND
     1     1     2    1
     2     2     3    1
     3     3     4   ar
     4     4     5   ar
     5     5     6   ar
     6     6     7    1
     7     7     8    1
     8     6     9   ar
     9     9    10    1
    10    10    11    1
    11    10    12    2
    12    10    13    2
    13     9    14   ar
    14    14     3   ar
    15     1    15    1
    16     1    16    1
    17     1    17    1
    18     4    18    1
    19     5    19    1
    20     8    20    1
    21     8    21    1
    22     8    22    1
    23    11    23    1
    24    11    24    1
    25    14    25    1
