@<TRIPOS>MOLECULE
*****
 35 36 0 0 0
SMALL
GASTEIGER

@<TRIPOS>ATOM
      1 C          -0.9237   -2.2000    3.2175 C.3     1  UNL1        0.0789
      2 O          -1.9341   -1.2325    3.4589 O.3     1  UNL1       -0.4929
      3 C          -2.0103   -0.1791    2.5526 C.ar    1  UNL1        0.1467
      4 C          -3.0736    0.6950    2.8127 C.ar    1  UNL1       -0.0143
      5 C          -3.3098    1.8041    2.0051 C.ar    1  UNL1       -0.0153
      6 C          -2.4988    2.0749    0.8990 C.ar    1  UNL1        0.1361
      7 O          -2.6679    3.1456    0.0611 O.3     1  UNL1       -0.4939
      8 C          -3.9751    3.7025    0.0022 C.3     1  UNL1        0.0788
      9 C          -1.4157    1.2030    0.6553 C.ar    1  UNL1        0.0859
     10 S          -0.2347    1.2812   -0.6039 S.2     1  UNL1       -0.0482
     11 C           0.5075   -0.1190   -0.0112 C.ar    1  UNL1        0.1657
     12 N           1.6167   -0.6863   -0.5828 N.am    1  UNL1       -0.2645
     13 C           2.3044   -0.2467   -1.6944 C.2     1  UNL1        0.2212
     14 O           2.0361    0.7327   -2.3811 O.2     1  UNL1       -0.2751
     15 C           3.5000   -1.1486   -2.0221 C.3     1  UNL1        0.0303
     16 C           3.0196   -2.5116   -2.5162 C.3     1  UNL1       -0.0544
     17 C           4.4113   -0.4986   -3.0636 C.3     1  UNL1       -0.0544
     18 N          -0.0378   -0.6577    1.0495 N.ar    1  UNL1       -0.2208
     19 C          -1.1499    0.0818    1.4531 C.ar    1  UNL1        0.1253
     20 H          -1.0504   -2.6729    2.2402 H       1  UNL1        0.0660
     21 H           0.0719   -1.7700    3.3392 H       1  UNL1        0.0660
     22 H          -1.0304   -2.9853    3.9729 H       1  UNL1        0.0660
     23 H          -3.7258    0.4999    3.6622 H       1  UNL1        0.0656
     24 H          -4.1382    2.4548    2.2671 H       1  UNL1        0.0656
     25 H          -4.7392    2.9282   -0.1262 H       1  UNL1        0.0660
     26 H          -4.1763    4.3125    0.8881 H       1  UNL1        0.0660
     27 H          -4.0182    4.3586   -0.8725 H       1  UNL1        0.0660
     28 H           1.9362   -1.5074   -0.0898 H       1  UNL1        0.1567
     29 H           4.0835   -1.2794   -1.1019 H       1  UNL1        0.0389
     30 H           3.8634   -3.1460   -2.8023 H       1  UNL1        0.0237
     31 H           2.3601   -2.4044   -3.3826 H       1  UNL1        0.0237
     32 H           2.4565   -3.0420   -1.7430 H       1  UNL1        0.0237
     33 H           3.8889   -0.3446   -4.0140 H       1  UNL1        0.0237
     34 H           4.7631    0.4795   -2.7153 H       1  UNL1        0.0237
     35 H           5.2907   -1.1223   -3.2559 H       1  UNL1        0.0237
@<TRIPOS>BOND
     1     1     2    1
     2     2     3    1
     3     3     4   ar
     4     4     5   ar
     5     5     6   ar
     6     6     7    1
     7     7     8    1
     8     6     9   ar
     9     9    10   ar
    10    10    11   ar
    11    11    12    1
    12    12    13   am
    13    13    14    2
    14    13    15    1
    15    15    16    1
    16    15    17    1
    17    11    18   ar
    18    18    19   ar
    19    19     3   ar
    20    19     9   ar
    21     1    20    1
    22     1    21    1
    23     1    22    1
    24     4    23    1
    25     5    24    1
    26     8    25    1
    27     8    26    1
    28     8    27    1
    29    12    28    1
    30    15    29    1
    31    16    30    1
    32    16    31    1
    33    16    32    1
    34    17    33    1
    35    17    34    1
    36    17    35    1
