@<TRIPOS>MOLECULE
*****
 38 40 0 0 0
SMALL
GASTEIGER

@<TRIPOS>ATOM
      1 C           6.6243   -0.0172   -1.6676 C.3     1  UNL1        0.0788
      2 O           6.4303   -0.1183   -0.2627 O.3     1  UNL1       -0.4951
      3 C           5.1385   -0.1147    0.1846 C.ar    1  UNL1        0.1203
      4 C           3.9935   -0.0358   -0.6078 C.ar    1  UNL1       -0.0165
      5 C           2.7204   -0.0426   -0.0192 C.ar    1  UNL1       -0.0165
      6 C           2.5834   -0.1344    1.3652 C.ar    1  UNL1        0.1214
      7 O           1.4080   -0.1427    2.0616 O.3     1  UNL1       -0.4841
      8 C           0.2041   -0.4129    1.3502 C.3     1  UNL1        0.1522
      9 C          -0.4762    0.8422    0.7939 C.2     1  UNL1        0.2107
     10 O           0.0995    1.9359    0.7474 O.2     1  UNL1       -0.2880
     11 C          -1.8944    0.7553    0.3146 C.ar    1  UNL1        0.1478
     12 C          -2.5985    1.8911    0.1017 C.ar    1  UNL1        0.2992
     13 O          -2.0558    3.1538    0.2861 O.3     1  UNL1       -0.4794
     14 O          -3.9213    1.9115   -0.3154 O.2     1  UNL1       -0.4243
     15 C          -4.5828    0.7334   -0.5137 C.ar    1  UNL1        0.1426
     16 C          -5.9184    0.8069   -0.9091 C.ar    1  UNL1       -0.0185
     17 C          -6.6449   -0.3649   -1.1294 C.ar    1  UNL1       -0.0582
     18 C          -6.0359   -1.6085   -0.9554 C.ar    1  UNL1       -0.0609
     19 C          -4.6993   -1.6807   -0.5606 C.ar    1  UNL1       -0.0474
     20 C          -3.9784   -0.5020   -0.3404 C.ar    1  UNL1        0.0649
     21 C          -2.5711   -0.5400    0.0731 C.ar    1  UNL1        0.2069
     22 O          -1.9940   -1.6130    0.1980 O.2     1  UNL1       -0.2862
     23 C           3.7309   -0.1994    2.1564 C.ar    1  UNL1       -0.0165
     24 C           4.9988   -0.1946    1.5703 C.ar    1  UNL1       -0.0165
     25 H           7.7018   -0.0282   -1.8579 H       1  UNL1        0.0660
     26 H           6.1854   -0.8740   -2.1894 H       1  UNL1        0.0660
     27 H           6.2277    0.9275   -2.0542 H       1  UNL1        0.0660
     28 H           4.0522    0.0397   -1.6884 H       1  UNL1        0.0655
     29 H           1.8613    0.0457   -0.6748 H       1  UNL1        0.0655
     30 H           0.3704   -1.1492    0.5572 H       1  UNL1        0.0781
     31 H          -0.4741   -0.8540    2.0888 H       1  UNL1        0.0781
     32 H          -1.0986    3.0698    0.4967 H       1  UNL1        0.2953
     33 H          -6.3939    1.7753   -1.0458 H       1  UNL1        0.0654
     34 H          -7.6866   -0.3078   -1.4375 H       1  UNL1        0.0619
     35 H          -6.6024   -2.5209   -1.1279 H       1  UNL1        0.0618
     36 H          -4.2267   -2.6515   -0.4267 H       1  UNL1        0.0626
     37 H           3.6401   -0.2572    3.2380 H       1  UNL1        0.0655
     38 H           5.8828   -0.2502    2.2004 H       1  UNL1        0.0655
@<TRIPOS>BOND
     1     1     2    1
     2     2     3    1
     3     3     4   ar
     4     4     5   ar
     5     5     6   ar
     6     6     7    1
     7     7     8    1
     8     8     9    1
     9     9    10    2
    10     9    11    1
    11    11    12   ar
    12    12    13    1
    13    12    14   ar
    14    14    15   ar
    15    15    16   ar
    16    16    17   ar
    17    17    18   ar
    18    18    19   ar
    19    19    20   ar
    20    20    21   ar
    21    21    22    2
    22     6    23   ar
    23    23    24   ar
    24    24     3   ar
    25    21    11   ar
    26    20    15   ar
    27     1    25    1
    28     1    26    1
    29     1    27    1
    30     4    28    1
    31     5    29    1
    32     8    30    1
    33     8    31    1
    34    13    32    1
    35    16    33    1
    36    17    34    1
    37    18    35    1
    38    19    36    1
    39    23    37    1
    40    24    38    1
