@<TRIPOS>MOLECULE
*****
 35 36 0 0 0
SMALL
GASTEIGER

@<TRIPOS>ATOM
      1 C           5.8679   -0.3869    1.8456 C.3     1  UNL1        0.0788
      2 O           5.2956    0.5548    0.9467 O.3     1  UNL1       -0.4951
      3 C           4.0316    0.2911    0.4983 C.ar    1  UNL1        0.1203
      4 C           3.5218    1.2308   -0.4005 C.ar    1  UNL1       -0.0165
      5 C           2.2388    1.0885   -0.9411 C.ar    1  UNL1       -0.0165
      6 C           1.4499   -0.0016   -0.5806 C.ar    1  UNL1        0.1214
      7 O           0.1843   -0.2636   -1.0242 O.3     1  UNL1       -0.4828
      8 C          -0.4142    0.7029   -1.8775 C.3     1  UNL1        0.1653
      9 C          -1.8532    0.3120   -2.2263 C.2     1  UNL1        0.2533
     10 O          -2.2091    0.2488   -3.4062 O.2     1  UNL1       -0.2719
     11 N          -2.7411    0.0857   -1.1855 N.am    1  UNL1       -0.2943
     12 C          -2.4186    0.2024    0.2400 C.3     1  UNL1        0.0383
     13 C          -3.6817    0.4488    1.0719 C.3     1  UNL1        0.0635
     14 O          -4.6770   -0.5723    0.9227 O.3     1  UNL1       -0.3767
     15 C          -4.6666   -1.2181   -0.3593 C.3     1  UNL1        0.0635
     16 C          -4.1070   -0.3456   -1.4864 C.3     1  UNL1        0.0383
     17 C           1.9606   -0.9437    0.3153 C.ar    1  UNL1       -0.0165
     18 C           3.2439   -0.8012    0.8550 C.ar    1  UNL1       -0.0165
     19 H           5.2921   -0.4452    2.7751 H       1  UNL1        0.0660
     20 H           6.8740   -0.0387    2.0987 H       1  UNL1        0.0660
     21 H           5.9645   -1.3720    1.3772 H       1  UNL1        0.0660
     22 H           4.1333    2.0837   -0.6869 H       1  UNL1        0.0655
     23 H           1.8977    1.8436   -1.6410 H       1  UNL1        0.0655
     24 H           0.1454    0.7587   -2.8194 H       1  UNL1        0.0795
     25 H          -0.4430    1.6939   -1.4089 H       1  UNL1        0.0795
     26 H          -1.7003    1.0105    0.4009 H       1  UNL1        0.0487
     27 H          -1.9563   -0.7457    0.5373 H       1  UNL1        0.0487
     28 H          -3.4289    0.5105    2.1350 H       1  UNL1        0.0575
     29 H          -4.1422    1.4027    0.7891 H       1  UNL1        0.0575
     30 H          -5.6947   -1.5177   -0.5856 H       1  UNL1        0.0575
     31 H          -4.0724   -2.1339   -0.2594 H       1  UNL1        0.0575
     32 H          -4.7063    0.5661   -1.5920 H       1  UNL1        0.0487
     33 H          -4.1365   -0.8872   -2.4373 H       1  UNL1        0.0487
     34 H           1.3544   -1.8017    0.5969 H       1  UNL1        0.0655
     35 H           3.5932   -1.5604    1.5462 H       1  UNL1        0.0655
@<TRIPOS>BOND
     1     1     2    1
     2     2     3    1
     3     3     4   ar
     4     4     5   ar
     5     5     6   ar
     6     6     7    1
     7     7     8    1
     8     8     9    1
     9     9    10    2
    10     9    11   am
    11    11    12    1
    12    12    13    1
    13    13    14    1
    14    14    15    1
    15    15    16    1
    16     6    17   ar
    17    17    18   ar
    18    18     3   ar
    19    16    11    1
    20     1    19    1
    21     1    20    1
    22     1    21    1
    23     4    22    1
    24     5    23    1
    25     8    24    1
    26     8    25    1
    27    12    26    1
    28    12    27    1
    29    13    28    1
    30    13    29    1
    31    15    30    1
    32    15    31    1
    33    16    32    1
    34    16    33    1
    35    17    34    1
    36    18    35    1
