@<TRIPOS>MOLECULE
*****
 45 47 0 0 0
SMALL
GASTEIGER

@<TRIPOS>ATOM
      1 C           5.9207   -3.2209    2.4312 C.3     1  UNL1        0.0788
      2 O           4.9739   -3.4288    1.3910 O.3     1  UNL1       -0.4951
      3 C           4.3508   -2.3200    0.8906 C.ar    1  UNL1        0.1203
      4 C           3.4391   -2.5736   -0.1339 C.ar    1  UNL1       -0.0165
      5 C           2.7345   -1.5259   -0.7311 C.ar    1  UNL1       -0.0165
      6 C           2.9282   -0.2087   -0.3122 C.ar    1  UNL1        0.1208
      7 O           2.1712    0.7111   -0.9781 O.3     1  UNL1       -0.4904
      8 C           2.2327    2.0868   -0.5847 C.3     1  UNL1        0.1050
      9 C           1.3265    2.3672    0.6193 C.3     1  UNL1        0.0449
     10 N          -0.0772    2.0883    0.3240 N.am    1  UNL1       -0.3231
     11 C          -0.9929    2.9178   -0.2520 C.2     1  UNL1        0.1346
     12 S          -0.7863    4.5565   -0.5107 S.2     1  UNL1       -0.0186
     13 N          -2.2063    2.3734   -0.5651 N.am    1  UNL1       -0.2964
     14 C          -2.5791    1.0375   -0.8632 C.ar    1  UNL1        0.0404
     15 C          -1.6296    0.1156   -1.3267 C.ar    1  UNL1       -0.0399
     16 C          -2.0030   -1.1792   -1.6735 C.ar    1  UNL1       -0.0594
     17 C          -3.3360   -1.5646   -1.5812 C.ar    1  UNL1       -0.0539
     18 C          -4.3162   -0.6629   -1.1450 C.ar    1  UNL1       -0.0161
     19 C          -5.6576   -1.0743   -1.0708 C.ar    1  UNL1       -0.0540
     20 C          -6.6532   -0.2051   -0.6303 C.ar    1  UNL1       -0.0612
     21 C          -6.3188    1.0866   -0.2505 C.ar    1  UNL1       -0.0611
     22 C          -4.9890    1.5113   -0.3189 C.ar    1  UNL1       -0.0523
     23 C          -3.9524    0.6592   -0.7776 C.ar    1  UNL1        0.0033
     24 C           3.8410    0.0473    0.7094 C.ar    1  UNL1       -0.0165
     25 C           4.5493   -1.0048    1.3094 C.ar    1  UNL1       -0.0165
     26 H           6.7548   -2.6002    2.0878 H       1  UNL1        0.0660
     27 H           6.3267   -4.1970    2.7139 H       1  UNL1        0.0660
     28 H           5.4445   -2.7890    3.3177 H       1  UNL1        0.0660
     29 H           3.2762   -3.5938   -0.4721 H       1  UNL1        0.0655
     30 H           2.0298   -1.7413   -1.5302 H       1  UNL1        0.0655
     31 H           3.2638    2.4100   -0.4053 H       1  UNL1        0.0712
     32 H           1.8828    2.6656   -1.4471 H       1  UNL1        0.0712
     33 H           1.4399    3.4066    0.9396 H       1  UNL1        0.0495
     34 H           1.5880    1.7237    1.4647 H       1  UNL1        0.0495
     35 H          -0.3960    1.1569    0.5570 H       1  UNL1        0.1478
     36 H          -2.9205    3.0726   -0.7303 H       1  UNL1        0.1538
     37 H          -0.5928    0.4010   -1.4846 H       1  UNL1        0.0636
     38 H          -1.2564   -1.8806   -2.0372 H       1  UNL1        0.0618
     39 H          -3.6070   -2.5797   -1.8648 H       1  UNL1        0.0624
     40 H          -5.9393   -2.0859   -1.3566 H       1  UNL1        0.0624
     41 H          -7.6855   -0.5407   -0.5779 H       1  UNL1        0.0618
     42 H          -7.0883    1.7665    0.1061 H       1  UNL1        0.0618
     43 H          -4.7743    2.5233    0.0135 H       1  UNL1        0.0624
     44 H           4.0340    1.0511    1.0707 H       1  UNL1        0.0655
     45 H           5.2494   -0.7589    2.1010 H       1  UNL1        0.0655
@<TRIPOS>BOND
     1     1     2    1
     2     2     3    1
     3     3     4   ar
     4     4     5   ar
     5     5     6   ar
     6     6     7    1
     7     7     8    1
     8     8     9    1
     9     9    10    1
    10    10    11    1
    11    11    12    2
    12    11    13    1
    13    13    14    1
    14    14    15   ar
    15    15    16   ar
    16    16    17   ar
    17    17    18   ar
    18    18    19   ar
    19    19    20   ar
    20    20    21   ar
    21    21    22   ar
    22    22    23   ar
    23     6    24   ar
    24    24    25   ar
    25    25     3   ar
    26    23    14   ar
    27    23    18   ar
    28     1    26    1
    29     1    27    1
    30     1    28    1
    31     4    29    1
    32     5    30    1
    33     8    31    1
    34     8    32    1
    35     9    33    1
    36     9    34    1
    37    10    35    1
    38    13    36    1
    39    15    37    1
    40    16    38    1
    41    17    39    1
    42    19    40    1
    43    20    41    1
    44    21    42    1
    45    22    43    1
    46    24    44    1
    47    25    45    1
