@<TRIPOS>MOLECULE
*****
 41 42 0 0 0
SMALL
GASTEIGER

@<TRIPOS>ATOM
      1 C           3.8770    3.0197   -2.3399 C.3     1  UNL1        0.0790
      2 O           3.9750    2.3335   -1.1004 O.3     1  UNL1       -0.4915
      3 C           3.1436    1.2604   -0.8953 C.ar    1  UNL1        0.1616
      4 C           2.1992    0.8044   -1.8238 C.ar    1  UNL1       -0.0145
      5 C           1.3913   -0.2943   -1.5270 C.ar    1  UNL1       -0.0328
      6 C           1.5271   -0.9316   -0.2934 C.ar    1  UNL1        0.0972
      7 S           0.4754   -2.3151    0.0832 S.O2    1  UNL1        0.0253
      8 O           0.5459   -3.2056   -1.0605 O.2     1  UNL1       -0.1643
      9 O           0.8134   -2.7857    1.4139 O.2     1  UNL1       -0.1643
     10 C          -1.1816   -1.6792    0.1840 C.ar    1  UNL1        0.0972
     11 C          -2.1493   -2.1057   -0.7243 C.ar    1  UNL1       -0.0328
     12 C          -3.4425   -1.5868   -0.6418 C.ar    1  UNL1       -0.0145
     13 C          -3.7685   -0.6494    0.3465 C.ar    1  UNL1        0.1616
     14 O          -5.0106   -0.0841    0.4971 O.3     1  UNL1       -0.4915
     15 C          -6.0433   -0.5125   -0.3789 C.3     1  UNL1        0.0790
     16 C          -2.7841   -0.2321    1.2695 C.ar    1  UNL1        0.1633
     17 O          -3.1878    0.6879    2.2050 O.3     1  UNL1       -0.4914
     18 C          -2.2578    1.0630    3.2113 C.3     1  UNL1        0.0790
     19 C          -1.4898   -0.7528    1.1853 C.ar    1  UNL1        0.0089
     20 C           2.4727   -0.5004    0.6411 C.ar    1  UNL1        0.0089
     21 C           3.2854    0.5976    0.3441 C.ar    1  UNL1        0.1633
     22 O           4.2345    1.1079    1.1952 O.3     1  UNL1       -0.4914
     23 C           4.5189    0.3791    2.3816 C.3     1  UNL1        0.0790
     24 H           4.6082    3.8338   -2.3302 H       1  UNL1        0.0660
     25 H           2.8851    3.4655   -2.4670 H       1  UNL1        0.0660
     26 H           4.1257    2.3600   -3.1776 H       1  UNL1        0.0660
     27 H           2.0713    1.2826   -2.7895 H       1  UNL1        0.0656
     28 H           0.6696   -0.6452   -2.2615 H       1  UNL1        0.0638
     29 H          -1.9129   -2.8375   -1.4941 H       1  UNL1        0.0638
     30 H          -4.1751   -1.9349   -1.3628 H       1  UNL1        0.0656
     31 H          -6.2369   -1.5846   -0.2683 H       1  UNL1        0.0660
     32 H          -6.9585    0.0201   -0.1028 H       1  UNL1        0.0660
     33 H          -5.8106   -0.2564   -1.4177 H       1  UNL1        0.0660
     34 H          -1.9407    0.1964    3.8010 H       1  UNL1        0.0660
     35 H          -2.7607    1.7599    3.8888 H       1  UNL1        0.0660
     36 H          -1.3977    1.5835    2.7775 H       1  UNL1        0.0660
     37 H          -0.7146   -0.4572    1.8846 H       1  UNL1        0.0674
     38 H           2.5582   -1.0256    1.5870 H       1  UNL1        0.0674
     39 H           5.3446    0.8827    2.8933 H       1  UNL1        0.0660
     40 H           3.6585    0.3808    3.0586 H       1  UNL1        0.0660
     41 H           4.8423   -0.6420    2.1535 H       1  UNL1        0.0660
@<TRIPOS>BOND
     1     1     2    1
     2     2     3    1
     3     3     4   ar
     4     4     5   ar
     5     5     6   ar
     6     6     7    1
     7     7     8    2
     8     7     9    2
     9     7    10    1
    10    10    11   ar
    11    11    12   ar
    12    12    13   ar
    13    13    14    1
    14    14    15    1
    15    13    16   ar
    16    16    17    1
    17    17    18    1
    18    16    19   ar
    19     6    20   ar
    20    20    21   ar
    21    21    22    1
    22    22    23    1
    23    21     3   ar
    24    19    10   ar
    25     1    24    1
    26     1    25    1
    27     1    26    1
    28     4    27    1
    29     5    28    1
    30    11    29    1
    31    12    30    1
    32    15    31    1
    33    15    32    1
    34    15    33    1
    35    18    34    1
    36    18    35    1
    37    18    36    1
    38    19    37    1
    39    20    38    1
    40    23    39    1
    41    23    40    1
    42    23    41    1
