@<TRIPOS>MOLECULE
*****
 37 39 0 0 0
SMALL
GASTEIGER

@<TRIPOS>ATOM
      1 C           4.6955   -0.3591   -2.6424 C.3     1  UNL1        0.0788
      2 O           4.8116   -0.4218   -1.2262 O.3     1  UNL1       -0.4951
      3 C           3.6637   -0.6600   -0.5221 C.ar    1  UNL1        0.1202
      4 C           2.3873   -0.8253   -1.0645 C.ar    1  UNL1       -0.0182
      5 C           1.2922   -1.0625   -0.2278 C.ar    1  UNL1       -0.0334
      6 C           1.4766   -1.1172    1.1545 C.ar    1  UNL1        0.0884
      7 S           0.0940   -1.4191    2.2259 S.O2    1  UNL1       -0.0027
      8 O           0.5847   -2.2671    3.2985 O.2     1  UNL1       -0.1693
      9 O          -1.0247   -1.8610    1.4170 O.2     1  UNL1       -0.1693
     10 C          -0.3054    0.1526    2.9499 C.3     1  UNL1        0.0767
     11 C          -0.4364    1.3123    1.9801 C.3     1  UNL1        0.0158
     12 C          -1.5489    1.1679    0.9910 C.ar    1  UNL1        0.0811
     13 N          -1.3500    0.9670   -0.2918 N.ar    1  UNL1       -0.2440
     14 C          -2.5668    0.8689   -0.9477 C.ar    1  UNL1        0.0785
     15 C          -2.7463    0.6332   -2.3257 C.ar    1  UNL1       -0.0352
     16 C          -4.0383    0.5603   -2.8569 C.ar    1  UNL1       -0.0597
     17 C          -5.1484    0.7206   -2.0336 C.ar    1  UNL1       -0.0606
     18 C          -4.9972    0.9573   -0.6636 C.ar    1  UNL1       -0.0459
     19 C          -3.6952    1.0275   -0.1410 C.ar    1  UNL1        0.0392
     20 S          -3.1877    1.3059    1.4804 S.2     1  UNL1       -0.0720
     21 C           2.7502   -0.9736    1.7075 C.ar    1  UNL1       -0.0334
     22 C           3.8375   -0.7396    0.8640 C.ar    1  UNL1       -0.0182
     23 H           4.3385   -1.3098   -3.0521 H       1  UNL1        0.0660
     24 H           4.0510    0.4714   -2.9488 H       1  UNL1        0.0660
     25 H           5.6934   -0.1742   -3.0516 H       1  UNL1        0.0660
     26 H           2.2073   -0.7771   -2.1336 H       1  UNL1        0.0655
     27 H           0.3033   -1.1928   -0.6647 H       1  UNL1        0.0638
     28 H           0.4937    0.3735    3.6670 H       1  UNL1        0.0508
     29 H          -1.2252    0.0027    3.5256 H       1  UNL1        0.0508
     30 H          -0.5945    2.2344    2.5544 H       1  UNL1        0.0349
     31 H           0.5038    1.4635    1.4375 H       1  UNL1        0.0349
     32 H          -1.8778    0.5073   -2.9640 H       1  UNL1        0.0639
     33 H          -4.1727    0.3749   -3.9199 H       1  UNL1        0.0618
     34 H          -6.1480    0.6591   -2.4589 H       1  UNL1        0.0618
     35 H          -5.8643    1.0799   -0.0220 H       1  UNL1        0.0629
     36 H           2.9100   -1.0533    2.7801 H       1  UNL1        0.0638
     37 H           4.8336   -0.6266    1.2864 H       1  UNL1        0.0655
@<TRIPOS>BOND
     1     1     2    1
     2     2     3    1
     3     3     4   ar
     4     4     5   ar
     5     5     6   ar
     6     6     7    1
     7     7     8    2
     8     7     9    2
     9     7    10    1
    10    10    11    1
    11    11    12    1
    12    12    13   ar
    13    13    14   ar
    14    14    15   ar
    15    15    16   ar
    16    16    17   ar
    17    17    18   ar
    18    18    19   ar
    19    19    20   ar
    20     6    21   ar
    21    21    22   ar
    22    22     3   ar
    23    20    12   ar
    24    19    14   ar
    25     1    23    1
    26     1    24    1
    27     1    25    1
    28     4    26    1
    29     5    27    1
    30    10    28    1
    31    10    29    1
    32    11    30    1
    33    11    31    1
    34    15    32    1
    35    16    33    1
    36    17    34    1
    37    18    35    1
    38    21    36    1
    39    22    37    1
