@<TRIPOS>MOLECULE
*****
 39 41 0 0 0
SMALL
GASTEIGER

@<TRIPOS>ATOM
      1 C           5.1188   -1.6696    0.6039 C.3     1  UNL1        0.0788
      2 O           4.0375   -1.9442   -0.2779 O.3     1  UNL1       -0.4951
      3 C           3.0820   -0.9749   -0.4089 C.ar    1  UNL1        0.1202
      4 C           2.0616   -1.2825   -1.3147 C.ar    1  UNL1       -0.0181
      5 C           1.0191   -0.3839   -1.5485 C.ar    1  UNL1       -0.0316
      6 C           0.9838    0.8235   -0.8482 C.ar    1  UNL1        0.1090
      7 S          -0.3269    1.9901   -1.1651 S.O2    1  UNL1        0.0751
      8 O          -0.5734    1.9431   -2.5929 O.2     1  UNL1       -0.1498
      9 O           0.0698    3.2477   -0.5643 O.2     1  UNL1       -0.1498
     10 N          -1.6894    1.3725   -0.3164 N.pl3   1  UNL1       -0.1934
     11 C          -2.2638    0.1511   -0.8490 C.ar    1  UNL1        0.0932
     12 C          -2.8277    0.1265   -2.1277 C.ar    1  UNL1       -0.0355
     13 C          -3.3567   -1.0584   -2.6441 C.ar    1  UNL1       -0.0597
     14 C          -3.3382   -2.2231   -1.8797 C.ar    1  UNL1       -0.0582
     15 C          -2.8016   -2.2016   -0.5929 C.ar    1  UNL1       -0.0180
     16 C          -2.2682   -1.0203   -0.0734 C.ar    1  UNL1        0.1431
     17 O          -1.8179   -1.1031    1.2194 O.3     1  UNL1       -0.4882
     18 C          -1.1684    0.0697    1.7242 C.3     1  UNL1        0.1096
     19 C          -1.7594    1.3750    1.1828 C.3     1  UNL1        0.0775
     20 C          -1.1749    2.5955    1.8727 C.3     1  UNL1       -0.0415
     21 C           2.0150    1.1551    0.0365 C.ar    1  UNL1       -0.0316
     22 C           3.0583    0.2501    0.2612 C.ar    1  UNL1       -0.0181
     23 H           5.7914   -2.5325    0.5870 H       1  UNL1        0.0660
     24 H           4.7660   -1.5424    1.6327 H       1  UNL1        0.0660
     25 H           5.6888   -0.7963    0.2699 H       1  UNL1        0.0660
     26 H           2.0858   -2.2289   -1.8507 H       1  UNL1        0.0655
     27 H           0.2507   -0.6331   -2.2765 H       1  UNL1        0.0638
     28 H          -2.8708    1.0292   -2.7324 H       1  UNL1        0.0638
     29 H          -3.7873   -1.0676   -3.6426 H       1  UNL1        0.0618
     30 H          -3.7532   -3.1446   -2.2805 H       1  UNL1        0.0619
     31 H          -2.8052   -3.1056    0.0108 H       1  UNL1        0.0655
     32 H          -1.2810    0.0418    2.8142 H       1  UNL1        0.0716
     33 H          -0.0986   -0.0210    1.5219 H       1  UNL1        0.0716
     34 H          -2.8345    1.3848    1.4210 H       1  UNL1        0.0549
     35 H          -1.5602    3.5223    1.4358 H       1  UNL1        0.0249
     36 H          -1.4517    2.5959    2.9332 H       1  UNL1        0.0249
     37 H          -0.0823    2.6098    1.8358 H       1  UNL1        0.0249
     38 H           2.0223    2.1140    0.5501 H       1  UNL1        0.0638
     39 H           3.8401    0.5355    0.9577 H       1  UNL1        0.0655
@<TRIPOS>BOND
     1     1     2    1
     2     2     3    1
     3     3     4   ar
     4     4     5   ar
     5     5     6   ar
     6     6     7    1
     7     7     8    2
     8     7     9    2
     9     7    10    1
    10    10    11    1
    11    11    12   ar
    12    12    13   ar
    13    13    14   ar
    14    14    15   ar
    15    15    16   ar
    16    16    17    1
    17    17    18    1
    18    18    19    1
    19    19    20    1
    20     6    21   ar
    21    21    22   ar
    22    22     3   ar
    23    19    10    1
    24    16    11   ar
    25     1    23    1
    26     1    24    1
    27     1    25    1
    28     4    26    1
    29     5    27    1
    30    12    28    1
    31    13    29    1
    32    14    30    1
    33    15    31    1
    34    18    32    1
    35    18    33    1
    36    19    34    1
    37    20    35    1
    38    20    36    1
    39    20    37    1
    40    21    38    1
    41    22    39    1
