@<TRIPOS>MOLECULE
*****
 49 51 0 0 0
SMALL
GASTEIGER

@<TRIPOS>ATOM
      1 C           5.2858   -2.5794   -1.8516 C.3     1  UNL1        0.0788
      2 O           4.7841   -1.3150   -2.2669 O.3     1  UNL1       -0.4951
      3 C           4.2203   -0.5248   -1.3038 C.ar    1  UNL1        0.1202
      4 C           4.0451   -0.8666    0.0392 C.ar    1  UNL1       -0.0181
      5 C           3.4474    0.0384    0.9227 C.ar    1  UNL1       -0.0319
      6 C           3.0107    1.2812    0.4552 C.ar    1  UNL1        0.1057
      7 S           2.2724    2.4433    1.5872 S.O2    1  UNL1        0.0609
      8 O           2.5059    3.7706    1.0590 O.2     1  UNL1       -0.1528
      9 O           2.7079    2.0800    2.9198 O.2     1  UNL1       -0.1528
     10 N           0.6177    2.0998    1.4627 N.3     1  UNL1       -0.1765
     11 C          -0.1028    2.4935    0.2322 C.3     1  UNL1        0.0219
     12 C          -0.6323    1.2702   -0.5058 C.3     1  UNL1       -0.0228
     13 C          -1.6088    0.4180    0.3469 C.3     1  UNL1        0.0128
     14 N          -3.0212    0.6026   -0.0788 N.3     1  UNL1       -0.2993
     15 C          -4.0356    0.0919    0.8627 C.3     1  UNL1       -0.0008
     16 C          -4.1037   -1.4354    0.9274 C.3     1  UNL1       -0.0402
     17 C          -4.3653   -2.0275   -0.4524 C.3     1  UNL1       -0.0507
     18 C          -3.3802   -1.4779   -1.4770 C.3     1  UNL1       -0.0402
     19 C          -3.3061    0.0522   -1.4230 C.3     1  UNL1       -0.0008
     20 C          -1.3700    0.7058    1.8483 C.3     1  UNL1       -0.0228
     21 C           0.1151    0.8885    2.1402 C.3     1  UNL1        0.0219
     22 C           3.2067    1.6422   -0.8789 C.ar    1  UNL1       -0.0319
     23 C           3.8016    0.7318   -1.7542 C.ar    1  UNL1       -0.0181
     24 H           6.0796   -2.4644   -1.1062 H       1  UNL1        0.0660
     25 H           5.7201   -3.0707   -2.7276 H       1  UNL1        0.0660
     26 H           4.4799   -3.2188   -1.4765 H       1  UNL1        0.0660
     27 H           4.3687   -1.8250    0.4322 H       1  UNL1        0.0655
     28 H           3.3320   -0.2313    1.9705 H       1  UNL1        0.0638
     29 H          -0.9254    3.1631    0.5099 H       1  UNL1        0.0444
     30 H           0.5425    3.0675   -0.4397 H       1  UNL1        0.0444
     31 H           0.2105    0.6316   -0.8013 H       1  UNL1        0.0293
     32 H          -1.0828    1.6120   -1.4422 H       1  UNL1        0.0293
     33 H          -1.3330   -0.6328    0.1898 H       1  UNL1        0.0463
     34 H          -5.0162    0.4738    0.5464 H       1  UNL1        0.0427
     35 H          -3.9005    0.5050    1.8673 H       1  UNL1        0.0427
     36 H          -4.9045   -1.7385    1.6116 H       1  UNL1        0.0278
     37 H          -3.1702   -1.8423    1.3331 H       1  UNL1        0.0278
     38 H          -5.3875   -1.7802   -0.7647 H       1  UNL1        0.0266
     39 H          -4.2990   -3.1203   -0.4135 H       1  UNL1        0.0266
     40 H          -3.6867   -1.7932   -2.4812 H       1  UNL1        0.0278
     41 H          -2.3887   -1.9119   -1.3042 H       1  UNL1        0.0278
     42 H          -2.5835    0.3986   -2.1677 H       1  UNL1        0.0427
     43 H          -4.2686    0.4618   -1.7584 H       1  UNL1        0.0427
     44 H          -1.7498   -0.1240    2.4557 H       1  UNL1        0.0293
     45 H          -1.9097    1.6102    2.1595 H       1  UNL1        0.0293
     46 H           0.2504    1.0037    3.2210 H       1  UNL1        0.0444
     47 H           0.6681    0.0019    1.8148 H       1  UNL1        0.0444
     48 H           2.9077    2.6222   -1.2433 H       1  UNL1        0.0638
     49 H           3.9517    1.0060   -2.7963 H       1  UNL1        0.0655
@<TRIPOS>BOND
     1     1     2    1
     2     2     3    1
     3     3     4   ar
     4     4     5   ar
     5     5     6   ar
     6     6     7    1
     7     7     8    2
     8     7     9    2
     9     7    10    1
    10    10    11    1
    11    11    12    1
    12    12    13    1
    13    13    14    1
    14    14    15    1
    15    15    16    1
    16    16    17    1
    17    17    18    1
    18    18    19    1
    19    13    20    1
    20    20    21    1
    21     6    22   ar
    22    22    23   ar
    23    23     3   ar
    24    21    10    1
    25    19    14    1
    26     1    24    1
    27     1    25    1
    28     1    26    1
    29     4    27    1
    30     5    28    1
    31    11    29    1
    32    11    30    1
    33    12    31    1
    34    12    32    1
    35    13    33    1
    36    15    34    1
    37    15    35    1
    38    16    36    1
    39    16    37    1
    40    17    38    1
    41    17    39    1
    42    18    40    1
    43    18    41    1
    44    19    42    1
    45    19    43    1
    46    20    44    1
    47    20    45    1
    48    21    46    1
    49    21    47    1
    50    22    48    1
    51    23    49    1
