@<TRIPOS>MOLECULE
*****
 38 40 0 0 0
SMALL
GASTEIGER

@<TRIPOS>ATOM
      1 C           6.0880   -0.7122   -0.2588 C.3     1  UNL1        0.0789
      2 O           5.1329   -0.6391   -1.3088 O.3     1  UNL1       -0.4936
      3 C           3.9432   -0.0107   -1.0482 C.ar    1  UNL1        0.1384
      4 C           3.5812    0.5128    0.1995 C.ar    1  UNL1       -0.0166
      5 C           2.3404    1.1342    0.3757 C.ar    1  UNL1       -0.0318
      6 C           1.4556    1.2291   -0.6996 C.ar    1  UNL1        0.1069
      7 S          -0.1183    2.0182   -0.4930 S.O2    1  UNL1        0.0587
      8 O          -0.3315    2.8631   -1.6460 O.2     1  UNL1       -0.1530
      9 O          -0.2088    2.5262    0.8568 O.2     1  UNL1       -0.1530
     10 N          -1.1719    0.7283   -0.6468 N.3     1  UNL1       -0.1866
     11 C          -1.4063   -0.1714    0.4768 C.3     1  UNL1        0.0319
     12 C          -1.9608   -1.5237   -0.0109 C.3     1  UNL1       -0.0328
     13 C          -3.2737   -1.6638    0.7818 C.3     1  UNL1       -0.0393
     14 C          -4.3096   -0.6867    0.2014 C.3     1  UNL1       -0.0499
     15 C          -3.8053    0.6784    0.6893 C.3     1  UNL1       -0.0485
     16 C          -2.5083    0.3216    1.4397 C.3     1  UNL1       -0.0237
     17 C          -2.9159   -0.9946    2.1090 C.3     1  UNL1       -0.0458
     18 C           1.8002    0.7230   -1.9530 C.ar    1  UNL1       -0.0134
     19 C           3.0388    0.1017   -2.1206 C.ar    1  UNL1        0.0844
     20 CL          3.4190   -0.5239   -3.6881 Cl      1  UNL1       -0.0797
     21 H           6.9772   -1.2158   -0.6502 H       1  UNL1        0.0660
     22 H           6.3899    0.2871    0.0716 H       1  UNL1        0.0660
     23 H           5.7089   -1.3089    0.5772 H       1  UNL1        0.0660
     24 H           4.2430    0.4546    1.0582 H       1  UNL1        0.0655
     25 H           2.0764    1.5397    1.3508 H       1  UNL1        0.0638
     26 H          -1.8893    0.8585   -1.3582 H       1  UNL1        0.1483
     27 H          -0.4715   -0.3505    1.0215 H       1  UNL1        0.0480
     28 H          -2.1197   -1.5745   -1.0934 H       1  UNL1        0.0283
     29 H          -1.2681   -2.3276    0.2657 H       1  UNL1        0.0283
     30 H          -3.6333   -2.6922    0.8524 H       1  UNL1        0.0301
     31 H          -5.3074   -0.8867    0.6078 H       1  UNL1        0.0268
     32 H          -4.3686   -0.7376   -0.8904 H       1  UNL1        0.0268
     33 H          -3.6612    1.3878   -0.1298 H       1  UNL1        0.0269
     34 H          -4.5354    1.1182    1.3794 H       1  UNL1        0.0269
     35 H          -2.1791    1.1040    2.1264 H       1  UNL1        0.0316
     36 H          -3.7712   -0.8905    2.7851 H       1  UNL1        0.0271
     37 H          -2.0912   -1.4877    2.6344 H       1  UNL1        0.0271
     38 H           1.1116    0.8117   -2.7899 H       1  UNL1        0.0653
@<TRIPOS>BOND
     1     1     2    1
     2     2     3    1
     3     3     4   ar
     4     4     5   ar
     5     5     6   ar
     6     6     7    1
     7     7     8    2
     8     7     9    2
     9     7    10    1
    10    10    11    1
    11    11    12    1
    12    12    13    1
    13    13    14    1
    14    14    15    1
    15    15    16    1
    16    16    17    1
    17     6    18   ar
    18    18    19   ar
    19    19    20    1
    20    19     3   ar
    21    16    11    1
    22    17    13    1
    23     1    21    1
    24     1    22    1
    25     1    23    1
    26     4    24    1
    27     5    25    1
    28    10    26    1
    29    11    27    1
    30    12    28    1
    31    12    29    1
    32    13    30    1
    33    14    31    1
    34    14    32    1
    35    15    33    1
    36    15    34    1
    37    16    35    1
    38    17    36    1
    39    17    37    1
    40    18    38    1
