@<TRIPOS>MOLECULE
*****
 39 45 0 0 0
SMALL
GASTEIGER

@<TRIPOS>ATOM
      1 SI         -7.0875   -0.0030   -0.2137 Si      1  UNL1        0.0000
      2 C          -5.8815    1.1130   -1.1634 C.2     1  UNL1        0.0000
      3 C          -4.5934    0.8225   -0.8756 C.2     1  UNL1        0.0000
      4 C          -4.3861   -0.2454    0.0678 C.ar    1  UNL1        0.0000
      5 C          -5.5892   -0.8406    0.5599 C.ar    1  UNL1        0.0000
      6 C          -5.4258   -1.8503    1.4508 C.ar    1  UNL1        0.0000
      7 S          -3.7534   -2.1007    1.7133 S.2     1  UNL1        0.0000
      8 C          -3.2493   -0.8287    0.6093 C.ar    1  UNL1        0.0000
      9 C          -1.8287   -0.5490    0.4003 C.ar    1  UNL1        0.0000
     10 C          -1.2486    0.4046   -0.4210 C.ar    1  UNL1        0.0000
     11 C           0.1596    0.3667   -0.3514 C.ar    1  UNL1        0.0000
     12 C           1.0593    1.2207   -1.0770 C.ar    1  UNL1        0.0000
     13 C           0.6721    2.2000   -1.9461 C.ar    1  UNL1        0.0000
     14 S           2.0699    2.9663   -2.5820 S.2     1  UNL1        0.0000
     15 C           3.1283    1.9520   -1.6647 C.ar    1  UNL1        0.0000
     16 C           2.4572    1.0374   -0.8799 C.ar    1  UNL1        0.0000
     17 C           3.0542    0.0891   -0.0324 C.ar    1  UNL1        0.0000
     18 C           4.4069   -0.1724    0.2325 C.ar    1  UNL1        0.0000
     19 N           5.5822    0.3842   -0.2246 N.ar    1  UNL1        0.0000
     20 C           6.6680   -0.2287    0.3415 C.ar    1  UNL1        0.0000
     21 C           6.2038   -1.2057    1.1862 C.ar    1  UNL1        0.0000
     22 C           4.7820   -1.1843    1.1299 C.ar    1  UNL1        0.0000
     23 C           3.7919   -1.9409    1.7673 C.ar    1  UNL1        0.0000
     24 N           2.4813   -1.7124    1.5325 N.ar    1  UNL1        0.0000
     25 C           2.1261   -0.7345    0.6656 C.ar    1  UNL1        0.0000
     26 C           0.7165   -0.5762    0.4900 C.ar    1  UNL1        0.0000
     27 S          -0.5876   -1.4457    1.2184 S.2     1  UNL1        0.0000
     28 H          -7.8559   -0.8716   -1.1393 H       1  UNL1        0.0000
     29 H          -7.9035    0.7829    0.7445 H       1  UNL1        0.0000
     30 H          -6.2440    1.8714   -1.8388 H       1  UNL1        0.0000
     31 H          -3.7899    1.3735   -1.3394 H       1  UNL1        0.0000
     32 H          -6.1653   -2.4527    1.9609 H       1  UNL1        0.0000
     33 H          -1.8031    1.0910   -1.0369 H       1  UNL1        0.0000
     34 H          -0.3142    2.5186   -2.2514 H       1  UNL1        0.0000
     35 H           4.1818    2.1274   -1.7912 H       1  UNL1        0.0000
     36 H           5.6539    1.1406   -0.8860 H       1  UNL1        0.0000
     37 H           7.6739    0.0840    0.0940 H       1  UNL1        0.0000
     38 H           6.8168   -1.8684    1.7835 H       1  UNL1        0.0000
     39 H           4.0213   -2.7347    2.4696 H       1  UNL1        0.0000
@<TRIPOS>BOND
     1     1     2    1
     2     2     3    2
     3     3     4    1
     4     4     5   ar
     5     5     6   ar
     6     6     7   ar
     7     7     8   ar
     8     8     9    1
     9     9    10   ar
    10    10    11   ar
    11    11    12   ar
    12    12    13   ar
    13    13    14   ar
    14    14    15   ar
    15    15    16   ar
    16    16    17   ar
    17    17    18   ar
    18    18    19   ar
    19    19    20   ar
    20    20    21   ar
    21    21    22   ar
    22    22    23   ar
    23    23    24   ar
    24    24    25   ar
    25    25    26   ar
    26    26    27   ar
    27     5     1    1
    28    27     9   ar
    29     8     4   ar
    30    26    11   ar
    31    16    12   ar
    32    25    17   ar
    33    22    18   ar
    34     1    28    1
    35     1    29    1
    36     2    30    1
    37     3    31    1
    38     6    32    1
    39    10    33    1
    40    13    34    1
    41    15    35    1
    42    19    36    1
    43    20    37    1
    44    21    38    1
    45    23    39    1
