@<TRIPOS>MOLECULE
*****
 38 39 0 0 0
SMALL
GASTEIGER

@<TRIPOS>ATOM
      1 C           7.1980    0.5060   -1.2535 C.3     1  UNL1        0.0788
      2 O           6.2918   -0.4763   -1.7401 O.3     1  UNL1       -0.4951
      3 C           5.0762   -0.5609   -1.1191 C.ar    1  UNL1        0.1202
      4 C           4.6473    0.2243   -0.0463 C.ar    1  UNL1       -0.0181
      5 C           3.3731    0.0332    0.5004 C.ar    1  UNL1       -0.0319
      6 C           2.5317   -0.9459   -0.0322 C.ar    1  UNL1        0.1055
      7 S           0.9232   -1.2127    0.6688 S.O2    1  UNL1        0.0584
      8 O           0.7788   -0.3735    1.8379 O.2     1  UNL1       -0.1530
      9 O           0.7049   -2.6406    0.7215 O.2     1  UNL1       -0.1530
     10 N          -0.0799   -0.6188   -0.5304 N.3     1  UNL1       -0.1892
     11 C          -0.3315    0.8242   -0.6341 C.3     1  UNL1        0.0265
     12 C          -1.5222    1.2603    0.2246 C.3     1  UNL1        0.0083
     13 S          -3.0412    0.3504   -0.2327 S.3     1  UNL1       -0.1517
     14 C          -4.1705    1.0933    0.9878 C.3     1  UNL1        0.0518
     15 C          -5.5224    0.4922    0.8853 C.ar    1  UNL1        0.1146
     16 C          -6.0503   -0.7268    1.2613 C.ar    1  UNL1       -0.0199
     17 C          -7.4184   -0.6995    0.8985 C.ar    1  UNL1       -0.0236
     18 C          -7.6395    0.5324    0.3317 C.ar    1  UNL1        0.0921
     19 O          -6.4970    1.2661    0.3233 O.2     1  UNL1       -0.4670
     20 C           2.9516   -1.7404   -1.1001 C.ar    1  UNL1       -0.0319
     21 C           4.2236   -1.5401   -1.6410 C.ar    1  UNL1       -0.0181
     22 H           7.4565    0.3222   -0.2053 H       1  UNL1        0.0660
     23 H           6.7933    1.5142   -1.3915 H       1  UNL1        0.0660
     24 H           8.1183    0.4319   -1.8416 H       1  UNL1        0.0660
     25 H           5.2803    0.9893    0.3912 H       1  UNL1        0.0655
     26 H           3.0543    0.6437    1.3422 H       1  UNL1        0.0638
     27 H          -0.8524   -1.2411   -0.7763 H       1  UNL1        0.1480
     28 H           0.5631    1.3897   -0.3521 H       1  UNL1        0.0449
     29 H          -0.5218    1.0578   -1.6886 H       1  UNL1        0.0449
     30 H          -1.3204    1.0809    1.2846 H       1  UNL1        0.0389
     31 H          -1.6997    2.3314    0.0811 H       1  UNL1        0.0389
     32 H          -4.2194    2.1734    0.8138 H       1  UNL1        0.0456
     33 H          -3.7722    0.9272    1.9946 H       1  UNL1        0.0456
     34 H          -5.5076   -1.5354    1.7320 H       1  UNL1        0.0652
     35 H          -8.1517   -1.4823    1.0323 H       1  UNL1        0.0649
     36 H          -8.5076    1.0166   -0.0939 H       1  UNL1        0.1029
     37 H           2.3030   -2.5115   -1.5087 H       1  UNL1        0.0638
     38 H           4.5568   -2.1551   -2.4744 H       1  UNL1        0.0655
@<TRIPOS>BOND
     1     1     2    1
     2     2     3    1
     3     3     4   ar
     4     4     5   ar
     5     5     6   ar
     6     6     7    1
     7     7     8    2
     8     7     9    2
     9     7    10    1
    10    10    11    1
    11    11    12    1
    12    12    13    1
    13    13    14    1
    14    14    15    1
    15    15    16   ar
    16    16    17   ar
    17    17    18   ar
    18    18    19   ar
    19     6    20   ar
    20    20    21   ar
    21    21     3   ar
    22    19    15   ar
    23     1    22    1
    24     1    23    1
    25     1    24    1
    26     4    25    1
    27     5    26    1
    28    10    27    1
    29    11    28    1
    30    11    29    1
    31    12    30    1
    32    12    31    1
    33    14    32    1
    34    14    33    1
    35    16    34    1
    36    17    35    1
    37    18    36    1
    38    20    37    1
    39    21    38    1
