@<TRIPOS>MOLECULE
*****
 28 28 0 0 0
SMALL
GASTEIGER

@<TRIPOS>ATOM
      1 C           2.3263    3.1687    0.6658 C.3     1  UNL1        0.0789
      2 O           2.2120    1.8323    0.1950 O.3     1  UNL1       -0.4932
      3 C           0.9994    1.2126    0.3030 C.ar    1  UNL1        0.1449
      4 C          -0.1962    1.8887    0.5817 C.ar    1  UNL1       -0.0163
      5 C          -1.4105    1.1995    0.6343 C.ar    1  UNL1       -0.0333
      6 C          -1.4332   -0.1721    0.3863 C.ar    1  UNL1        0.0899
      7 S          -2.9815   -1.0457    0.4583 S.O2    1  UNL1       -0.0058
      8 C          -3.7042   -0.7379   -1.1321 C.3     1  UNL1        0.0596
      9 O          -2.6695   -2.4597    0.5463 O.2     1  UNL1       -0.1696
     10 O          -3.7932   -0.3952    1.4677 O.2     1  UNL1       -0.1696
     11 C          -0.2534   -0.8724    0.1229 C.ar    1  UNL1       -0.0085
     12 C           0.9615   -0.1762    0.0837 C.ar    1  UNL1        0.1311
     13 S           2.4877   -1.0435   -0.2298 S.O2    1  UNL1       -0.0024
     14 C           2.1566   -2.7729   -0.0471 C.3     1  UNL1        0.0597
     15 O           3.4135   -0.7070    0.8361 O.2     1  UNL1       -0.1695
     16 O           2.8104   -0.8222   -1.6271 O.2     1  UNL1       -0.1695
     17 H           1.9973    3.2545    1.7068 H       1  UNL1        0.0660
     18 H           3.3835    3.4479    0.6260 H       1  UNL1        0.0660
     19 H           1.7753    3.8584    0.0185 H       1  UNL1        0.0660
     20 H          -0.2155    2.9605    0.7581 H       1  UNL1        0.0655
     21 H          -2.3252    1.7410    0.8695 H       1  UNL1        0.0638
     22 H          -4.6644   -1.2566   -1.1735 H       1  UNL1        0.0468
     23 H          -3.0393   -1.1259   -1.9062 H       1  UNL1        0.0468
     24 H          -3.8577    0.3359   -1.2539 H       1  UNL1        0.0468
     25 H          -0.3037   -1.9426   -0.0491 H       1  UNL1        0.0657
     26 H           1.4706   -3.1013   -0.8297 H       1  UNL1        0.0468
     27 H           1.7494   -2.9619    0.9479 H       1  UNL1        0.0468
     28 H           3.1039   -3.3070   -0.1571 H       1  UNL1        0.0468
@<TRIPOS>BOND
     1     1     2    1
     2     2     3    1
     3     3     4   ar
     4     4     5   ar
     5     5     6   ar
     6     6     7    1
     7     7     8    1
     8     7     9    2
     9     7    10    2
    10     6    11   ar
    11    11    12   ar
    12    12    13    1
    13    13    14    1
    14    13    15    2
    15    13    16    2
    16    12     3   ar
    17     1    17    1
    18     1    18    1
    19     1    19    1
    20     4    20    1
    21     5    21    1
    22     8    22    1
    23     8    23    1
    24     8    24    1
    25    11    25    1
    26    14    26    1
    27    14    27    1
    28    14    28    1
