@<TRIPOS>MOLECULE
*****
 30 32 0 0 0
SMALL
GASTEIGER

@<TRIPOS>ATOM
      1 C          -5.3308   -0.3200    0.5127 C.3     1  UNL1        0.0788
      2 O          -4.0726   -0.9656    0.6624 O.3     1  UNL1       -0.4951
      3 C          -2.9699   -0.2871    0.2249 C.ar    1  UNL1        0.1210
      4 C          -2.9617    0.9815   -0.3426 C.ar    1  UNL1       -0.0165
      5 C          -1.7529    1.5505   -0.7486 C.ar    1  UNL1       -0.0158
      6 C          -0.5416    0.8603   -0.6044 C.ar    1  UNL1        0.1320
      7 C          -0.5279   -0.4015   -0.0007 C.ar    1  UNL1        0.0673
      8 C          -1.7584   -0.9648    0.3942 C.ar    1  UNL1       -0.0056
      9 C           0.6898   -1.2011    0.3253 C.2     1  UNL1        0.1971
     10 O           0.5588   -2.3701    0.6900 O.2     1  UNL1       -0.2865
     11 C           2.0687   -0.6589    0.2797 C.ar    1  UNL1        0.0288
     12 C           2.9907   -1.1384    1.2233 C.ar    1  UNL1       -0.0505
     13 C           4.3078   -0.6802    1.2228 C.ar    1  UNL1       -0.0611
     14 C           4.7148    0.2533    0.2742 C.ar    1  UNL1       -0.0614
     15 C           3.8082    0.7210   -0.6780 C.ar    1  UNL1       -0.0547
     16 C           2.4807    0.2616   -0.6882 C.ar    1  UNL1        0.0004
     17 C           1.5150    0.7451   -1.7208 C.3     1  UNL1        0.1153
     18 O           0.5339    1.5545   -1.0834 O.3     1  UNL1       -0.4866
     19 H          -6.1005   -0.9930    0.9023 H       1  UNL1        0.0660
     20 H          -5.3709    0.6057    1.0963 H       1  UNL1        0.0660
     21 H          -5.5551   -0.1325   -0.5426 H       1  UNL1        0.0660
     22 H          -3.8714    1.5546   -0.4859 H       1  UNL1        0.0655
     23 H          -1.7553    2.5420   -1.1974 H       1  UNL1        0.0655
     24 H          -1.7802   -1.9488    0.8627 H       1  UNL1        0.0662
     25 H           2.6805   -1.8735    1.9642 H       1  UNL1        0.0625
     26 H           5.0130   -1.0540    1.9608 H       1  UNL1        0.0618
     27 H           5.7406    0.6140    0.2726 H       1  UNL1        0.0618
     28 H           4.1463    1.4476   -1.4143 H       1  UNL1        0.0622
     29 H           2.0247    1.3807   -2.4541 H       1  UNL1        0.0748
     30 H           1.0757   -0.0828   -2.2941 H       1  UNL1        0.0748
@<TRIPOS>BOND
     1     1     2    1
     2     2     3    1
     3     3     4   ar
     4     4     5   ar
     5     5     6   ar
     6     6     7   ar
     7     7     8   ar
     8     7     9    1
     9     9    10    2
    10     9    11    1
    11    11    12   ar
    12    12    13   ar
    13    13    14   ar
    14    14    15   ar
    15    15    16   ar
    16    16    17    1
    17    17    18    1
    18     8     3   ar
    19    16    11   ar
    20    18     6    1
    21     1    19    1
    22     1    20    1
    23     1    21    1
    24     4    22    1
    25     5    23    1
    26     8    24    1
    27    12    25    1
    28    13    26    1
    29    14    27    1
    30    15    28    1
    31    17    29    1
    32    17    30    1
