@<TRIPOS>MOLECULE
*****
 26 27 0 0 0
SMALL
GASTEIGER

@<TRIPOS>ATOM
      1 C           3.9299   -0.0743   -0.1147 C.3     1  UNL1        0.0788
      2 O           2.7357    0.6602    0.1227 O.3     1  UNL1       -0.4945
      3 C           1.5533   -0.0343    0.1200 C.ar    1  UNL1        0.1294
      4 C           1.4560   -1.4236    0.0764 C.ar    1  UNL1       -0.0187
      5 C           0.2035   -2.0435    0.1024 C.ar    1  UNL1       -0.0505
      6 C          -0.9794   -1.2948    0.1883 C.ar    1  UNL1       -0.0170
      7 C          -2.2248   -1.9439    0.2405 C.ar    1  UNL1       -0.0540
      8 C          -3.4096   -1.2176    0.3489 C.ar    1  UNL1       -0.0612
      9 C          -3.3648    0.1685    0.4087 C.ar    1  UNL1       -0.0611
     10 C          -2.1346    0.8268    0.3546 C.ar    1  UNL1       -0.0533
     11 C          -0.9144    0.1176    0.2340 C.ar    1  UNL1       -0.0057
     12 C           0.3701    0.7257    0.1766 C.ar    1  UNL1        0.0455
     13 C           0.5220    2.1953    0.2430 C.2     1  UNL1        0.0775
     14 N           0.1179    3.0774   -0.6244 N.2     1  UNL1       -0.0949
     15 O          -0.4673    2.4742   -1.7431 O.2     1  UNL1       -0.4092
     16 H           4.7572    0.6402   -0.1635 H       1  UNL1        0.0660
     17 H           3.8885   -0.6018   -1.0735 H       1  UNL1        0.0660
     18 H           4.1354   -0.7648    0.7096 H       1  UNL1        0.0660
     19 H           2.3332   -2.0603    0.0291 H       1  UNL1        0.0654
     20 H           0.1610   -3.1309    0.0674 H       1  UNL1        0.0625
     21 H          -2.2818   -3.0298    0.2009 H       1  UNL1        0.0624
     22 H          -4.3645   -1.7348    0.3883 H       1  UNL1        0.0618
     23 H          -4.2834    0.7432    0.4936 H       1  UNL1        0.0618
     24 H          -2.1356    1.9147    0.3980 H       1  UNL1        0.0624
     25 H           1.0643    2.5707    1.1278 H       1  UNL1        0.0870
     26 H          -0.6676    3.2399   -2.3117 H       1  UNL1        0.3278
@<TRIPOS>BOND
     1     1     2    1
     2     2     3    1
     3     3     4   ar
     4     4     5   ar
     5     5     6   ar
     6     6     7   ar
     7     7     8   ar
     8     8     9   ar
     9     9    10   ar
    10    10    11   ar
    11    11    12   ar
    12    12    13    1
    13    13    14    2
    14    14    15    1
    15    12     3   ar
    16    11     6   ar
    17     1    16    1
    18     1    17    1
    19     1    18    1
    20     4    19    1
    21     5    20    1
    22     7    21    1
    23     8    22    1
    24     9    23    1
    25    10    24    1
    26    13    25    1
    27    15    26    1
