@<TRIPOS>MOLECULE
*****
 40 42 0 0 0
SMALL
GASTEIGER

@<TRIPOS>ATOM
      1 C           6.9038   -0.0990    1.1867 C.3     1  UNL1        0.0788
      2 O           6.0764    0.3428    0.1171 O.3     1  UNL1       -0.4951
      3 C           4.7297    0.1673    0.2644 C.ar    1  UNL1        0.1208
      4 C           4.0903   -0.4091    1.3566 C.ar    1  UNL1       -0.0179
      5 C           2.6935   -0.5237    1.3679 C.ar    1  UNL1       -0.0322
      6 C           1.9113   -0.0756    0.3125 C.ar    1  UNL1        0.0734
      7 N           0.5750   -0.2071    0.3685 N.ar    1  UNL1       -0.2307
      8 C          -0.2263    0.2316   -0.6413 C.ar    1  UNL1        0.1395
      9 N          -1.5842    0.0733   -0.3991 N.pl3   1  UNL1       -0.3141
     10 C          -1.9706   -1.2825    0.0184 C.3     1  UNL1        0.0138
     11 C          -3.2276   -1.2336    0.8868 C.3     1  UNL1       -0.0345
     12 C          -4.3644   -0.4821    0.1862 C.3     1  UNL1       -0.0410
     13 C          -5.5957   -0.3966    1.0847 C.3     1  UNL1       -0.0623
     14 C          -3.8825    0.9159   -0.2153 C.3     1  UNL1       -0.0345
     15 C          -2.6209    0.8481   -1.0787 C.3     1  UNL1        0.0138
     16 C           0.3577    0.8082   -1.7757 C.ar    1  UNL1        0.0922
     17 C          -0.3762    1.2217   -2.9311 C.1     1  UNL1        0.1026
     18 N          -0.9427    1.5676   -3.8844 N.1     1  UNL1       -0.1908
     19 C           1.7541    0.9441   -1.8384 C.ar    1  UNL1       -0.0317
     20 C           2.5563    0.5045   -0.7848 C.ar    1  UNL1        0.0052
     21 C           3.9583    0.6227   -0.8056 C.ar    1  UNL1       -0.0107
     22 H           6.6805    0.4466    2.1095 H       1  UNL1        0.0660
     23 H           7.9423    0.1148    0.9162 H       1  UNL1        0.0660
     24 H           6.8136   -1.1802    1.3343 H       1  UNL1        0.0660
     25 H           4.6382   -0.7801    2.2163 H       1  UNL1        0.0655
     26 H           2.2014   -0.9744    2.2271 H       1  UNL1        0.0640
     27 H          -2.1570   -1.8941   -0.8739 H       1  UNL1        0.0464
     28 H          -1.1912   -1.7940    0.5956 H       1  UNL1        0.0464
     29 H          -3.5438   -2.2559    1.1257 H       1  UNL1        0.0283
     30 H          -2.9889   -0.7412    1.8387 H       1  UNL1        0.0283
     31 H          -4.6430   -1.0325   -0.7221 H       1  UNL1        0.0299
     32 H          -6.4132    0.1228    0.5738 H       1  UNL1        0.0232
     33 H          -5.9499   -1.3974    1.3533 H       1  UNL1        0.0232
     34 H          -5.3773    0.1451    2.0113 H       1  UNL1        0.0232
     35 H          -3.6714    1.5069    0.6858 H       1  UNL1        0.0283
     36 H          -4.6706    1.4432   -0.7657 H       1  UNL1        0.0283
     37 H          -2.8656    0.3907   -2.0445 H       1  UNL1        0.0464
     38 H          -2.2944    1.8808   -1.2453 H       1  UNL1        0.0464
     39 H           2.2152    1.3873   -2.7201 H       1  UNL1        0.0638
     40 H           4.4596    1.0730   -1.6599 H       1  UNL1        0.0661
@<TRIPOS>BOND
     1     1     2    1
     2     2     3    1
     3     3     4   ar
     4     4     5   ar
     5     5     6   ar
     6     6     7   ar
     7     7     8   ar
     8     8     9    1
     9     9    10    1
    10    10    11    1
    11    11    12    1
    12    12    13    1
    13    12    14    1
    14    14    15    1
    15     8    16   ar
    16    16    17    1
    17    17    18    3
    18    16    19   ar
    19    19    20   ar
    20    20    21   ar
    21    21     3   ar
    22    20     6   ar
    23    15     9    1
    24     1    22    1
    25     1    23    1
    26     1    24    1
    27     4    25    1
    28     5    26    1
    29    10    27    1
    30    10    28    1
    31    11    29    1
    32    11    30    1
    33    12    31    1
    34    13    32    1
    35    13    33    1
    36    13    34    1
    37    14    35    1
    38    14    36    1
    39    15    37    1
    40    15    38    1
    41    19    39    1
    42    21    40    1
