@<TRIPOS>MOLECULE
*****
 26 27 0 0 0
SMALL
GASTEIGER

@<TRIPOS>ATOM
      1 C           4.6054   -0.8245    0.3763 C.3     1  UNL1        0.0788
      2 O           3.2769   -1.2890    0.5770 O.3     1  UNL1       -0.4951
      3 C           2.2613   -0.4103    0.3080 C.ar    1  UNL1        0.1209
      4 C           2.4169    0.8912   -0.1784 C.ar    1  UNL1       -0.0164
      5 C           1.3078    1.7126   -0.4232 C.ar    1  UNL1       -0.0153
      6 C           0.0543    1.1681   -0.1592 C.ar    1  UNL1        0.1362
      7 O          -1.1310    1.8071   -0.3285 O.2     1  UNL1       -0.4592
      8 C          -2.1163    0.9443    0.0503 C.ar    1  UNL1        0.1153
      9 C          -3.4869    1.4988   -0.0098 C.3     1  UNL1       -0.0056
     10 C          -1.5748   -0.2752    0.4374 C.ar    1  UNL1        0.0849
     11 C          -2.2767   -1.4583    0.8999 C.2     1  UNL1        0.2454
     12 N          -3.5655   -1.6112    0.4709 N.am    1  UNL1       -0.3252
     13 O          -1.7613   -2.3244    1.5981 O.2     1  UNL1       -0.2703
     14 C          -0.1543   -0.1156    0.3217 C.ar    1  UNL1        0.0360
     15 C           0.9771   -0.9216    0.5598 C.ar    1  UNL1       -0.0085
     16 H           5.2879   -1.6349    0.6500 H       1  UNL1        0.0660
     17 H           4.8275    0.0304    1.0235 H       1  UNL1        0.0660
     18 H           4.7831   -0.5813   -0.6765 H       1  UNL1        0.0660
     19 H           3.3993    1.3064   -0.3811 H       1  UNL1        0.0655
     20 H           1.4141    2.7234   -0.7977 H       1  UNL1        0.0656
     21 H          -3.9987    1.1542   -0.9132 H       1  UNL1        0.0308
     22 H          -3.4688    2.5933   -0.0283 H       1  UNL1        0.0308
     23 H          -4.0709    1.1931    0.8635 H       1  UNL1        0.0308
     24 H          -3.9744   -2.5150    0.6690 H       1  UNL1        0.1453
     25 H          -3.8919   -1.1282   -0.3524 H       1  UNL1        0.1453
     26 H           0.8600   -1.9337    0.9399 H       1  UNL1        0.0661
@<TRIPOS>BOND
     1     1     2    1
     2     2     3    1
     3     3     4   ar
     4     4     5   ar
     5     5     6   ar
     6     6     7   ar
     7     7     8   ar
     8     8     9    1
     9     8    10   ar
    10    10    11    1
    11    11    12   am
    12    11    13    2
    13    10    14   ar
    14    14    15   ar
    15    15     3   ar
    16    14     6   ar
    17     1    16    1
    18     1    17    1
    19     1    18    1
    20     4    19    1
    21     5    20    1
    22     9    21    1
    23     9    22    1
    24     9    23    1
    25    12    24    1
    26    12    25    1
    27    15    26    1
