@<TRIPOS>MOLECULE
*****
 33 34 0 0 0
SMALL
GASTEIGER

@<TRIPOS>ATOM
      1 C           5.5451   -1.7658   -0.9719 C.3     1  UNL1        0.0788
      2 O           4.1459   -1.5130   -1.0182 O.3     1  UNL1       -0.4951
      3 C           3.6960   -0.4005   -0.3615 C.ar    1  UNL1        0.1208
      4 C           4.4762    0.4806    0.3894 C.ar    1  UNL1       -0.0199
      5 C           3.8899    1.5915    1.0025 C.ar    1  UNL1       -0.0576
      6 C           2.5201    1.8198    0.8765 C.ar    1  UNL1       -0.0494
      7 C           1.7276    0.9305    0.1433 C.ar    1  UNL1        0.0405
      8 C           0.2665    1.2043    0.0326 C.2     1  UNL1        0.2484
      9 O          -0.1021    2.3725    0.0172 O.2     1  UNL1       -0.2699
     10 N          -0.5359    0.0780   -0.0015 N.am    1  UNL1       -0.2815
     11 C          -1.9391    0.0293   -0.1392 C.ar    1  UNL1        0.0337
     12 C          -2.7435    1.1496   -0.3451 C.ar    1  UNL1       -0.0402
     13 C          -4.1306    1.0143   -0.4781 C.ar    1  UNL1       -0.0571
     14 C          -4.7344   -0.2454   -0.4201 C.ar    1  UNL1       -0.0503
     15 C          -6.2237   -0.3813   -0.5290 C.3     1  UNL1       -0.0397
     16 C          -3.9310   -1.3677   -0.2027 C.ar    1  UNL1       -0.0571
     17 C          -2.5453   -1.2311   -0.0701 C.ar    1  UNL1       -0.0402
     18 C           2.3225   -0.1701   -0.4863 C.ar    1  UNL1       -0.0078
     19 H           5.7412   -2.6679   -1.5595 H       1  UNL1        0.0660
     20 H           5.8766   -1.9579    0.0539 H       1  UNL1        0.0660
     21 H           6.1106   -0.9442   -1.4239 H       1  UNL1        0.0660
     22 H           5.5450    0.3376    0.5115 H       1  UNL1        0.0654
     23 H           4.5025    2.2824    1.5770 H       1  UNL1        0.0619
     24 H           2.0699    2.6897    1.3514 H       1  UNL1        0.0625
     25 H          -0.0834   -0.8138    0.1485 H       1  UNL1        0.1551
     26 H          -2.3240    2.1486   -0.4087 H       1  UNL1        0.0636
     27 H          -4.7332    1.9074   -0.6296 H       1  UNL1        0.0621
     28 H          -6.4970   -1.3475   -0.9661 H       1  UNL1        0.0278
     29 H          -6.6804   -0.2995    0.4621 H       1  UNL1        0.0278
     30 H          -6.6407    0.3971   -1.1766 H       1  UNL1        0.0278
     31 H          -4.3769   -2.3574   -0.1358 H       1  UNL1        0.0621
     32 H          -1.9512   -2.1264    0.0922 H       1  UNL1        0.0636
     33 H           1.7367   -0.8439   -1.1057 H       1  UNL1        0.0662
@<TRIPOS>BOND
     1     1     2    1
     2     2     3    1
     3     3     4   ar
     4     4     5   ar
     5     5     6   ar
     6     6     7   ar
     7     7     8    1
     8     8     9    2
     9     8    10   am
    10    10    11    1
    11    11    12   ar
    12    12    13   ar
    13    13    14   ar
    14    14    15    1
    15    14    16   ar
    16    16    17   ar
    17     7    18   ar
    18    18     3   ar
    19    17    11   ar
    20     1    19    1
    21     1    20    1
    22     1    21    1
    23     4    22    1
    24     5    23    1
    25     6    24    1
    26    10    25    1
    27    12    26    1
    28    13    27    1
    29    15    28    1
    30    15    29    1
    31    15    30    1
    32    16    31    1
    33    17    32    1
    34    18    33    1
