@<TRIPOS>MOLECULE
*****
 36 37 0 0 0
SMALL
GASTEIGER

@<TRIPOS>ATOM
      1 C           6.3804    1.9822   -0.9090 C.3     1  UNL1        0.0788
      2 O           4.9959    1.7772   -0.6543 O.3     1  UNL1       -0.4951
      3 C           4.5773    0.4826   -0.5119 C.ar    1  UNL1        0.1208
      4 C           5.3785   -0.6551   -0.6225 C.ar    1  UNL1       -0.0199
      5 C           4.8246   -1.9251   -0.4404 C.ar    1  UNL1       -0.0576
      6 C           3.4663   -2.0629   -0.1568 C.ar    1  UNL1       -0.0494
      7 C           2.6511   -0.9295   -0.0631 C.ar    1  UNL1        0.0405
      8 C           1.2038   -1.1196    0.2413 C.2     1  UNL1        0.2494
      9 O           0.8719   -2.0905    0.9114 O.2     1  UNL1       -0.2698
     10 N           0.3624   -0.1799   -0.3052 N.am    1  UNL1       -0.2664
     11 C          -1.0234   -0.0848   -0.1778 C.ar    1  UNL1        0.1252
     12 C          -1.7991   -0.9202    0.6111 C.ar    1  UNL1       -0.0197
     13 C          -3.1838   -0.7206    0.6616 C.ar    1  UNL1       -0.0357
     14 C          -3.7640    0.3063   -0.0719 C.ar    1  UNL1        0.0518
     15 N          -5.1447    0.5976   -0.0974 N.am    1  UNL1       -0.2845
     16 C          -6.1486   -0.0569    0.5929 C.2     1  UNL1        0.2141
     17 C          -7.5099    0.5345    0.3228 C.3     1  UNL1        0.0125
     18 O          -6.0154   -0.9953    1.3693 O.2     1  UNL1       -0.2758
     19 C          -2.8994    1.0914   -0.8307 C.ar    1  UNL1        0.0509
     20 N          -1.5559    0.9236   -0.8997 N.ar    1  UNL1       -0.2383
     21 C           3.2149    0.3421   -0.2282 C.ar    1  UNL1       -0.0078
     22 H           6.6760    1.5339   -1.8633 H       1  UNL1        0.0660
     23 H           6.9941    1.6023   -0.0856 H       1  UNL1        0.0660
     24 H           6.5507    3.0607   -0.9811 H       1  UNL1        0.0660
     25 H           6.4394   -0.5895   -0.8415 H       1  UNL1        0.0654
     26 H           5.4535   -2.8090   -0.5167 H       1  UNL1        0.0619
     27 H           3.0432   -3.0552   -0.0110 H       1  UNL1        0.0625
     28 H           0.7269    0.5179   -0.9378 H       1  UNL1        0.1566
     29 H          -1.3696   -1.7253    1.1957 H       1  UNL1        0.0652
     30 H          -3.7699   -1.3884    1.2848 H       1  UNL1        0.0638
     31 H          -5.4267    1.3766   -0.6797 H       1  UNL1        0.1548
     32 H          -7.6733    1.3853    0.9894 H       1  UNL1        0.0323
     33 H          -7.5968    0.8603   -0.7177 H       1  UNL1        0.0323
     34 H          -8.2772   -0.2235    0.5049 H       1  UNL1        0.0323
     35 H          -3.2690    1.9159   -1.4338 H       1  UNL1        0.0849
     36 H           2.6158    1.2412   -0.1114 H       1  UNL1        0.0662
@<TRIPOS>BOND
     1     1     2    1
     2     2     3    1
     3     3     4   ar
     4     4     5   ar
     5     5     6   ar
     6     6     7   ar
     7     7     8    1
     8     8     9    2
     9     8    10   am
    10    10    11    1
    11    11    12   ar
    12    12    13   ar
    13    13    14   ar
    14    14    15    1
    15    15    16   am
    16    16    17    1
    17    16    18    2
    18    14    19   ar
    19    19    20   ar
    20     7    21   ar
    21    21     3   ar
    22    20    11   ar
    23     1    22    1
    24     1    23    1
    25     1    24    1
    26     4    25    1
    27     5    26    1
    28     6    27    1
    29    10    28    1
    30    12    29    1
    31    13    30    1
    32    15    31    1
    33    17    32    1
    34    17    33    1
    35    17    34    1
    36    19    35    1
    37    21    36    1
