@<TRIPOS>MOLECULE
*****
 33 34 0 0 0
SMALL
GASTEIGER

@<TRIPOS>ATOM
      1 C          -2.1650   -1.1161   -4.2399 C.3     1  UNL1        0.0788
      2 O          -1.3831   -1.1573   -3.0525 O.3     1  UNL1       -0.4951
      3 C          -1.7128   -0.2689   -2.0662 C.ar    1  UNL1        0.1204
      4 C          -2.7746    0.6329   -2.0940 C.ar    1  UNL1       -0.0199
      5 C          -2.9963    1.4861   -1.0106 C.ar    1  UNL1       -0.0580
      6 C          -2.1604    1.4429    0.1058 C.ar    1  UNL1       -0.0577
      7 C          -1.0881    0.5424    0.1542 C.ar    1  UNL1       -0.0353
      8 C          -0.1749    0.5055    1.3758 C.3     1  UNL1        0.0296
      9 C          -0.3442   -0.8432    2.0907 C.3     1  UNL1        0.0358
     10 C           0.7341   -1.0974    3.1096 C.2     1  UNL1        0.2185
     11 O           0.5521   -1.7883    4.1072 O.2     1  UNL1       -0.2754
     12 N           1.9699   -0.6043    2.8018 N.am    1  UNL1       -0.2794
     13 C           2.2559    0.2708    1.7936 C.2     1  UNL1        0.0813
     14 S           3.9459    0.6158    1.6630 S.3     1  UNL1       -0.1125
     15 C           4.3669   -0.3876    0.2165 C.3     1  UNL1       -0.0123
     16 C           1.2762    0.8499    1.0746 C.2     1  UNL1        0.0647
     17 C           1.5596    1.8631    0.1057 C.1     1  UNL1        0.0978
     18 N           1.7892    2.6853   -0.6799 N.1     1  UNL1       -0.1911
     19 C          -0.8782   -0.3098   -0.9447 C.ar    1  UNL1       -0.0162
     20 H          -2.0945   -0.1376   -4.7265 H       1  UNL1        0.0660
     21 H          -3.2070   -1.3825   -4.0347 H       1  UNL1        0.0660
     22 H          -1.7612   -1.8616   -4.9318 H       1  UNL1        0.0660
     23 H          -3.4476    0.7001   -2.9421 H       1  UNL1        0.0654
     24 H          -3.8239    2.1912   -1.0395 H       1  UNL1        0.0619
     25 H          -2.3556    2.1234    0.9323 H       1  UNL1        0.0621
     26 H          -0.5177    1.2833    2.0755 H       1  UNL1        0.0409
     27 H          -1.3172   -0.8723    2.5964 H       1  UNL1        0.0368
     28 H          -0.3149   -1.6887    1.3922 H       1  UNL1        0.0368
     29 H           2.7262   -0.8724    3.4221 H       1  UNL1        0.1553
     30 H           4.1266   -1.4390    0.3977 H       1  UNL1        0.0344
     31 H           3.8275   -0.0419   -0.6692 H       1  UNL1        0.0344
     32 H           5.4396   -0.3050    0.0224 H       1  UNL1        0.0344
     33 H          -0.0524   -1.0187   -0.9450 H       1  UNL1        0.0657
@<TRIPOS>BOND
     1     1     2    1
     2     2     3    1
     3     3     4   ar
     4     4     5   ar
     5     5     6   ar
     6     6     7   ar
     7     7     8    1
     8     8     9    1
     9     9    10    1
    10    10    11    2
    11    10    12   am
    12    12    13    1
    13    13    14    1
    14    14    15    1
    15    13    16    2
    16    16    17    1
    17    17    18    3
    18     7    19   ar
    19    19     3   ar
    20    16     8    1
    21     1    20    1
    22     1    21    1
    23     1    22    1
    24     4    23    1
    25     5    24    1
    26     6    25    1
    27     8    26    1
    28     9    27    1
    29     9    28    1
    30    12    29    1
    31    15    30    1
    32    15    31    1
    33    15    32    1
    34    19    33    1
