@<TRIPOS>MOLECULE
*****
 30 32 0 0 0
SMALL
GASTEIGER

@<TRIPOS>ATOM
      1 C           5.6026    0.8480   -0.2181 C.3     1  UNL1        0.0788
      2 O           4.2278    1.1803   -0.0694 O.3     1  UNL1       -0.4951
      3 C           3.3207    0.1759   -0.2684 C.ar    1  UNL1        0.1208
      4 C           3.6219   -1.1445   -0.6039 C.ar    1  UNL1       -0.0199
      5 C           2.5951   -2.0750   -0.7791 C.ar    1  UNL1       -0.0576
      6 C           1.2638   -1.6894   -0.6196 C.ar    1  UNL1       -0.0493
      7 C           0.9473   -0.3672   -0.2829 C.ar    1  UNL1        0.0405
      8 C          -0.4827    0.0079   -0.1211 C.ar    1  UNL1        0.2319
      9 N          -1.4488   -0.8367   -0.2785 N.ar    1  UNL1       -0.2117
     10 C          -2.7451   -0.3627   -0.0993 C.ar    1  UNL1        0.0817
     11 C          -3.8247   -1.2338   -0.2576 C.ar    1  UNL1       -0.0354
     12 C          -5.1347   -0.7791   -0.0825 C.ar    1  UNL1       -0.0597
     13 C          -5.3723    0.5536    0.2529 C.ar    1  UNL1       -0.0609
     14 C          -4.2990    1.4293    0.4126 C.ar    1  UNL1       -0.0457
     15 C          -2.9920    0.9596    0.2340 C.ar    1  UNL1        0.0848
     16 C          -1.8353    1.8474    0.3925 C.ar    1  UNL1        0.3478
     17 O          -1.9868    3.0278    0.6867 O.2     1  UNL1       -0.2444
     18 O          -0.6064    1.3134    0.2021 O.2     1  UNL1       -0.4030
     19 C           1.9846    0.5596   -0.1091 C.ar    1  UNL1       -0.0077
     20 H           5.8208    0.5192   -1.2395 H       1  UNL1        0.0660
     21 H           5.9076    0.0936    0.5146 H       1  UNL1        0.0660
     22 H           6.1877    1.7528   -0.0275 H       1  UNL1        0.0660
     23 H           4.6444   -1.4826   -0.7365 H       1  UNL1        0.0654
     24 H           2.8329   -3.1034   -1.0406 H       1  UNL1        0.0619
     25 H           0.4769   -2.4279   -0.7600 H       1  UNL1        0.0625
     26 H          -3.6416   -2.2730   -0.5191 H       1  UNL1        0.0639
     27 H          -5.9680   -1.4663   -0.2083 H       1  UNL1        0.0618
     28 H          -6.3909    0.9091    0.3896 H       1  UNL1        0.0618
     29 H          -4.4792    2.4698    0.6743 H       1  UNL1        0.0626
     30 H           1.7732    1.5941    0.1525 H       1  UNL1        0.0662
@<TRIPOS>BOND
     1     1     2    1
     2     2     3    1
     3     3     4   ar
     4     4     5   ar
     5     5     6   ar
     6     6     7   ar
     7     7     8    1
     8     8     9   ar
     9     9    10   ar
    10    10    11   ar
    11    11    12   ar
    12    12    13   ar
    13    13    14   ar
    14    14    15   ar
    15    15    16   ar
    16    16    17    2
    17    16    18   ar
    18     7    19   ar
    19    19     3   ar
    20    18     8   ar
    21    15    10   ar
    22     1    20    1
    23     1    21    1
    24     1    22    1
    25     4    23    1
    26     5    24    1
    27     6    25    1
    28    11    26    1
    29    12    27    1
    30    13    28    1
    31    14    29    1
    32    19    30    1
