@<TRIPOS>MOLECULE
*****
 37 43 0 0 0
SMALL
GASTEIGER

@<TRIPOS>ATOM
      1 SI          6.4771    1.4835    0.1716 Si      1  UNL1        0.0000
      2 C           4.9275    2.3212    0.8741 C.2     1  UNL1        0.0000
      3 C           3.8038    1.6324    0.5750 C.2     1  UNL1        0.0000
      4 C           3.9918    0.4307   -0.1964 C.ar    1  UNL1        0.0000
      5 C           5.3516    0.1465   -0.5317 C.ar    1  UNL1        0.0000
      6 C           5.5564   -0.9808   -1.2587 C.ar    1  UNL1        0.0000
      7 S           4.0493   -1.7385   -1.5561 S.2     1  UNL1        0.0000
      8 C           3.1186   -0.5258   -0.6915 C.ar    1  UNL1        0.0000
      9 C           1.6687   -0.6701   -0.6128 C.ar    1  UNL1        0.0000
     10 C           0.8970   -1.6865   -1.1579 C.ar    1  UNL1        0.0000
     11 C          -0.4733   -1.5004   -0.8820 C.ar    1  UNL1        0.0000
     12 C          -1.5085   -2.3929   -1.3188 C.ar    1  UNL1        0.0000
     13 N          -1.2525   -3.4820   -2.0289 N.ar    1  UNL1        0.0000
     14 S          -2.7762   -4.1351   -2.2592 S.2     1  UNL1        0.0000
     15 N          -3.7149   -3.0123   -1.4485 N.ar    1  UNL1        0.0000
     16 C          -2.8757   -2.0725   -0.9593 C.ar    1  UNL1        0.0000
     17 C          -3.2336   -0.9190   -0.1971 C.ar    1  UNL1        0.0000
     18 C          -4.5801   -0.6317    0.1393 C.ar    1  UNL1        0.0000
     19 C          -4.8526    0.5222    0.8917 C.ar    1  UNL1        0.0000
     20 C          -6.0210    1.1385    1.4128 C.ar    1  UNL1        0.0000
     21 C          -5.6023    2.2713    2.0716 C.ar    1  UNL1        0.0000
     22 O          -4.2522    2.3980    1.9934 O.2     1  UNL1        0.0000
     23 C          -3.7934    1.3347    1.2758 C.ar    1  UNL1        0.0000
     24 C          -2.4538    1.0926    0.9685 C.ar    1  UNL1        0.0000
     25 C          -2.1673   -0.0654    0.2118 C.ar    1  UNL1        0.0000
     26 C          -0.8149   -0.3848   -0.1453 C.ar    1  UNL1        0.0000
     27 S           0.6570    0.4552    0.2081 S.2     1  UNL1        0.0000
     28 H           7.3724    1.0074    1.2550 H       1  UNL1        0.0000
     29 H           7.1265    2.3278   -0.8617 H       1  UNL1        0.0000
     30 H           4.9978    3.2378    1.4376 H       1  UNL1        0.0000
     31 H           2.8348    1.9808    0.9048 H       1  UNL1        0.0000
     32 H           6.4776   -1.4075   -1.6319 H       1  UNL1        0.0000
     33 H           1.2972   -2.5191   -1.7246 H       1  UNL1        0.0000
     34 H          -5.3868   -1.2881   -0.1767 H       1  UNL1        0.0000
     35 H          -7.0422    0.7978    1.3190 H       1  UNL1        0.0000
     36 H          -6.1126    3.0519    2.6186 H       1  UNL1        0.0000
     37 H          -1.6912    1.7822    1.3103 H       1  UNL1        0.0000
@<TRIPOS>BOND
     1     1     2    1
     2     2     3    2
     3     3     4    1
     4     4     5   ar
     5     5     6   ar
     6     6     7   ar
     7     7     8   ar
     8     8     9    1
     9     9    10   ar
    10    10    11   ar
    11    11    12   ar
    12    12    13   ar
    13    13    14   ar
    14    14    15   ar
    15    15    16   ar
    16    16    17   ar
    17    17    18   ar
    18    18    19   ar
    19    19    20   ar
    20    20    21   ar
    21    21    22   ar
    22    22    23   ar
    23    23    24   ar
    24    24    25   ar
    25    25    26   ar
    26    26    27   ar
    27     5     1    1
    28    27     9   ar
    29     8     4   ar
    30    26    11   ar
    31    16    12   ar
    32    25    17   ar
    33    23    19   ar
    34     1    28    1
    35     1    29    1
    36     2    30    1
    37     3    31    1
    38     6    32    1
    39    10    33    1
    40    18    34    1
    41    20    35    1
    42    21    36    1
    43    24    37    1
