@<TRIPOS>MOLECULE
*****
 41 43 0 0 0
SMALL
GASTEIGER

@<TRIPOS>ATOM
      1 C          -6.4501    0.2226   -2.2802 C.3     1  UNL1        0.0788
      2 O          -5.6586    0.7686   -1.2329 O.3     1  UNL1       -0.4951
      3 C          -4.5606    0.0482   -0.8493 C.ar    1  UNL1        0.1204
      4 C          -4.1834   -1.1987   -1.3456 C.ar    1  UNL1       -0.0199
      5 C          -3.0337   -1.8263   -0.8600 C.ar    1  UNL1       -0.0580
      6 C          -2.2573   -1.2143    0.1243 C.ar    1  UNL1       -0.0579
      7 C          -2.6213    0.0385    0.6332 C.ar    1  UNL1       -0.0351
      8 C          -1.7977    0.7087    1.7037 C.3     1  UNL1        0.0508
      9 C          -0.4012    1.0776    1.2337 C.2     1  UNL1        0.2355
     10 O          -0.1892    1.9186    0.3638 O.2     1  UNL1       -0.2738
     11 N           0.6053    0.3900    1.9009 N.am    1  UNL1       -0.2184
     12 N           1.8671    0.3590    1.2553 N.ar    1  UNL1       -0.2097
     13 C           2.7885    1.3726    1.4295 C.ar    1  UNL1        0.1281
     14 C           2.4243    2.5315    2.3231 C.3     1  UNL1       -0.0046
     15 N           3.9548    1.3677    0.8607 N.ar    1  UNL1       -0.2322
     16 C           4.2826    0.2910    0.0216 C.ar    1  UNL1        0.0783
     17 C           5.5169    0.3011   -0.6313 C.ar    1  UNL1       -0.0355
     18 C           5.8889   -0.7542   -1.4698 C.ar    1  UNL1       -0.0597
     19 C           5.0268   -1.8341   -1.6623 C.ar    1  UNL1       -0.0609
     20 C           3.7913   -1.8595   -1.0172 C.ar    1  UNL1       -0.0473
     21 C           3.4293   -0.7960   -0.1827 C.ar    1  UNL1        0.0664
     22 C           2.1347   -0.7893    0.5183 C.ar    1  UNL1        0.2789
     23 O           1.3783   -1.7593    0.4774 O.2     1  UNL1       -0.2653
     24 C          -3.7782    0.6580    0.1370 C.ar    1  UNL1       -0.0163
     25 H          -6.9021   -0.7278   -1.9779 H       1  UNL1        0.0660
     26 H          -7.2624    0.9261   -2.4867 H       1  UNL1        0.0660
     27 H          -5.8665    0.1090   -3.1999 H       1  UNL1        0.0660
     28 H          -4.7585   -1.7092   -2.1103 H       1  UNL1        0.0654
     29 H          -2.7389   -2.7961   -1.2537 H       1  UNL1        0.0619
     30 H          -1.3643   -1.7256    0.4782 H       1  UNL1        0.0620
     31 H          -2.2762    1.6341    2.0470 H       1  UNL1        0.0407
     32 H          -1.7535    0.0503    2.5797 H       1  UNL1        0.0407
     33 H           0.3505   -0.5238    2.2711 H       1  UNL1        0.1758
     34 H           1.9362    2.1841    3.2374 H       1  UNL1        0.0308
     35 H           1.7541    3.2088    1.7873 H       1  UNL1        0.0308
     36 H           3.3252    3.0857    2.6037 H       1  UNL1        0.0308
     37 H           6.1923    1.1406   -0.4845 H       1  UNL1        0.0639
     38 H           6.8528   -0.7303   -1.9728 H       1  UNL1        0.0618
     39 H           5.3176   -2.6534   -2.3156 H       1  UNL1        0.0618
     40 H           3.1160   -2.6987   -1.1659 H       1  UNL1        0.0626
     41 H          -4.0802    1.6342    0.5117 H       1  UNL1        0.0657
@<TRIPOS>BOND
     1     1     2    1
     2     2     3    1
     3     3     4   ar
     4     4     5   ar
     5     5     6   ar
     6     6     7   ar
     7     7     8    1
     8     8     9    1
     9     9    10    2
    10     9    11   am
    11    11    12    1
    12    12    13   ar
    13    13    14    1
    14    13    15   ar
    15    15    16   ar
    16    16    17   ar
    17    17    18   ar
    18    18    19   ar
    19    19    20   ar
    20    20    21   ar
    21    21    22   ar
    22    22    23    2
    23     7    24   ar
    24    24     3   ar
    25    22    12   ar
    26    21    16   ar
    27     1    25    1
    28     1    26    1
    29     1    27    1
    30     4    28    1
    31     5    29    1
    32     6    30    1
    33     8    31    1
    34     8    32    1
    35    11    33    1
    36    14    34    1
    37    14    35    1
    38    14    36    1
    39    17    37    1
    40    18    38    1
    41    19    39    1
    42    20    40    1
    43    24    41    1
