@<TRIPOS>MOLECULE
*****
 29 29 0 0 0
SMALL
GASTEIGER

@<TRIPOS>ATOM
      1 C          -3.2161    2.1723   -0.8798 C.3     1  UNL1        0.0790
      2 O          -2.3522    1.0615   -1.0777 O.3     1  UNL1       -0.4914
      3 C          -1.5053    0.7263   -0.0534 C.ar    1  UNL1        0.1618
      4 C          -1.5383    1.3111    1.2165 C.ar    1  UNL1       -0.0163
      5 C          -0.6105    0.9405    2.1921 C.ar    1  UNL1       -0.0578
      6 C           0.3635   -0.0142    1.9092 C.ar    1  UNL1       -0.0549
      7 C           0.4145   -0.6254    0.6498 C.ar    1  UNL1       -0.0016
      8 C           1.4960   -1.6434    0.3579 C.3     1  UNL1       -0.0140
      9 C           2.6625   -1.0629   -0.4391 C.3     1  UNL1        0.0489
     10 C           3.5449   -0.1837    0.4034 C.2     1  UNL1        0.3050
     11 O           3.6927   -0.2226    1.6136 O.2     1  UNL1       -0.2510
     12 O           4.2630    0.6800   -0.3420 O.3     1  UNL1       -0.4806
     13 C          -0.5397   -0.2647   -0.3210 C.ar    1  UNL1        0.1646
     14 O          -0.4238   -0.8758   -1.5488 O.3     1  UNL1       -0.4912
     15 C          -1.6139   -1.5598   -1.9384 C.3     1  UNL1        0.0790
     16 H          -3.7583    2.3440   -1.8148 H       1  UNL1        0.0660
     17 H          -3.9563    1.9600   -0.1017 H       1  UNL1        0.0660
     18 H          -2.6500    3.0818   -0.6525 H       1  UNL1        0.0660
     19 H          -2.2708    2.0663    1.4805 H       1  UNL1        0.0655
     20 H          -0.6396    1.4067    3.1740 H       1  UNL1        0.0619
     21 H           1.0908   -0.2746    2.6767 H       1  UNL1        0.0621
     22 H           1.8519   -2.0853    1.2975 H       1  UNL1        0.0320
     23 H           1.0528   -2.4771   -0.2013 H       1  UNL1        0.0320
     24 H           3.2896   -1.8790   -0.8150 H       1  UNL1        0.0381
     25 H           2.2986   -0.4870   -1.2971 H       1  UNL1        0.0381
     26 H           4.7931    1.1773    0.3148 H       1  UNL1        0.2951
     27 H          -1.3153   -2.4416   -2.5139 H       1  UNL1        0.0660
     28 H          -2.2081   -1.9051   -1.0842 H       1  UNL1        0.0660
     29 H          -2.2159   -0.9254   -2.5953 H       1  UNL1        0.0660
@<TRIPOS>BOND
     1     1     2    1
     2     2     3    1
     3     3     4   ar
     4     4     5   ar
     5     5     6   ar
     6     6     7   ar
     7     7     8    1
     8     8     9    1
     9     9    10    1
    10    10    11    2
    11    10    12    1
    12     7    13   ar
    13    13    14    1
    14    14    15    1
    15    13     3   ar
    16     1    16    1
    17     1    17    1
    18     1    18    1
    19     4    19    1
    20     5    20    1
    21     6    21    1
    22     8    22    1
    23     8    23    1
    24     9    24    1
    25     9    25    1
    26    12    26    1
    27    15    27    1
    28    15    28    1
    29    15    29    1
