@<TRIPOS>MOLECULE
*****
 47 48 0 0 0
SMALL
GASTEIGER

@<TRIPOS>ATOM
      1 C           4.5128   -2.9950   -1.2063 C.3     1  UNL1        0.0788
      2 O           4.0227   -1.6777   -1.4237 O.3     1  UNL1       -0.4951
      3 C           3.7228   -0.9398   -0.3115 C.ar    1  UNL1        0.1204
      4 C           3.8191   -1.3711    1.0103 C.ar    1  UNL1       -0.0199
      5 C           3.4811   -0.5068    2.0538 C.ar    1  UNL1       -0.0580
      6 C           3.0384    0.7879    1.7805 C.ar    1  UNL1       -0.0571
      7 C           2.9209    1.2367    0.4585 C.ar    1  UNL1       -0.0299
      8 C           2.4325    2.6384    0.1560 C.3     1  UNL1        0.0243
      9 N           0.9930    2.8019   -0.0664 N.3     1  UNL1       -0.2952
     10 C           0.1637    2.6104    1.1337 C.3     1  UNL1        0.0151
     11 C          -1.3295    2.4145    0.8121 C.3     1  UNL1        0.0275
     12 N          -1.5448    1.2489   -0.0516 N.am    1  UNL1       -0.2990
     13 C          -2.7080    0.5052    0.0958 C.2     1  UNL1        0.2159
     14 O          -3.5915    0.8400    0.8831 O.2     1  UNL1       -0.2756
     15 C          -2.8280   -0.7381   -0.7830 C.3     1  UNL1        0.0265
     16 C          -4.0225   -1.6698   -0.5133 C.3     1  UNL1       -0.0385
     17 C          -4.0021   -2.2628    0.8954 C.3     1  UNL1       -0.0622
     18 C          -5.3706   -1.0187   -0.8230 C.3     1  UNL1       -0.0622
     19 C          -0.4510    0.9252   -0.9764 C.3     1  UNL1        0.0275
     20 C           0.4580    2.1363   -1.2611 C.3     1  UNL1        0.0151
     21 C           3.2800    0.3601   -0.5776 C.ar    1  UNL1       -0.0155
     22 H           4.7177   -3.4408   -2.1845 H       1  UNL1        0.0660
     23 H           3.7628   -3.6177   -0.7074 H       1  UNL1        0.0660
     24 H           5.4525   -2.9793   -0.6441 H       1  UNL1        0.0660
     25 H           4.1556   -2.3703    1.2648 H       1  UNL1        0.0654
     26 H           3.5621   -0.8442    3.0841 H       1  UNL1        0.0619
     27 H           2.7826    1.4461    2.6082 H       1  UNL1        0.0621
     28 H           2.9749    3.0177   -0.7208 H       1  UNL1        0.0476
     29 H           2.7460    3.3065    0.9698 H       1  UNL1        0.0476
     30 H           0.2798    3.4792    1.7911 H       1  UNL1        0.0442
     31 H           0.4834    1.7276    1.6974 H       1  UNL1        0.0442
     32 H          -1.8943    2.3056    1.7442 H       1  UNL1        0.0477
     33 H          -1.7283    3.2895    0.2847 H       1  UNL1        0.0477
     34 H          -1.9089   -1.3252   -0.6663 H       1  UNL1        0.0361
     35 H          -2.8827   -0.4016   -1.8255 H       1  UNL1        0.0361
     36 H          -3.9154   -2.5120   -1.2112 H       1  UNL1        0.0300
     37 H          -4.1884   -1.5078    1.6648 H       1  UNL1        0.0232
     38 H          -4.7742   -3.0332    0.9968 H       1  UNL1        0.0232
     39 H          -3.0355   -2.7326    1.1057 H       1  UNL1        0.0232
     40 H          -5.6181   -0.2199   -0.1184 H       1  UNL1        0.0232
     41 H          -6.1735   -1.7623   -0.7697 H       1  UNL1        0.0232
     42 H          -5.3766   -0.5969   -1.8334 H       1  UNL1        0.0232
     43 H          -0.8652    0.5560   -1.9191 H       1  UNL1        0.0477
     44 H           0.1250    0.1108   -0.5223 H       1  UNL1        0.0477
     45 H          -0.1466    2.8850   -1.7905 H       1  UNL1        0.0442
     46 H           1.2445    1.8588   -1.9705 H       1  UNL1        0.0442
     47 H           3.2239    0.6883   -1.6131 H       1  UNL1        0.0657
@<TRIPOS>BOND
     1     1     2    1
     2     2     3    1
     3     3     4   ar
     4     4     5   ar
     5     5     6   ar
     6     6     7   ar
     7     7     8    1
     8     8     9    1
     9     9    10    1
    10    10    11    1
    11    11    12    1
    12    12    13   am
    13    13    14    2
    14    13    15    1
    15    15    16    1
    16    16    17    1
    17    16    18    1
    18    12    19    1
    19    19    20    1
    20     7    21   ar
    21    21     3   ar
    22    20     9    1
    23     1    22    1
    24     1    23    1
    25     1    24    1
    26     4    25    1
    27     5    26    1
    28     6    27    1
    29     8    28    1
    30     8    29    1
    31    10    30    1
    32    10    31    1
    33    11    32    1
    34    11    33    1
    35    15    34    1
    36    15    35    1
    37    16    36    1
    38    17    37    1
    39    17    38    1
    40    17    39    1
    41    18    40    1
    42    18    41    1
    43    18    42    1
    44    19    43    1
    45    19    44    1
    46    20    45    1
    47    20    46    1
    48    21    47    1
