@<TRIPOS>MOLECULE
*****
 33 34 0 0 0
SMALL
GASTEIGER

@<TRIPOS>ATOM
      1 C           4.6070    0.7834    2.8243 C.3     1  UNL1        0.0788
      2 O           3.4149    0.2042    2.3077 O.3     1  UNL1       -0.4951
      3 C           2.9934    0.6462    1.0836 C.ar    1  UNL1        0.1219
      4 C           3.6112    1.6248    0.3081 C.ar    1  UNL1       -0.0198
      5 C           3.0613    1.9841   -0.9234 C.ar    1  UNL1       -0.0566
      6 C           1.8937    1.3703   -1.3857 C.ar    1  UNL1       -0.0402
      7 C           1.2641    0.3899   -0.6198 C.ar    1  UNL1        0.0369
      8 N           0.0855   -0.2797   -1.0064 N.am    1  UNL1       -0.2851
      9 C          -0.6694   -0.0803   -2.1505 C.2     1  UNL1        0.2215
     10 O          -0.4224    0.7106   -3.0573 O.2     1  UNL1       -0.2751
     11 C          -1.8774   -1.0051   -2.2421 C.3     1  UNL1        0.0494
     12 C          -2.7767   -0.9671   -1.0271 C.ar    1  UNL1       -0.0386
     13 C          -3.3518    0.2400   -0.6047 C.ar    1  UNL1       -0.0581
     14 C          -4.1702    0.2758    0.5247 C.ar    1  UNL1       -0.0615
     15 C          -4.4286   -0.8942    1.2376 C.ar    1  UNL1       -0.0617
     16 C          -3.8743   -2.1021    0.8182 C.ar    1  UNL1       -0.0615
     17 C          -3.0553   -2.1404   -0.3114 C.ar    1  UNL1       -0.0581
     18 C           1.8249    0.0351    0.6142 C.ar    1  UNL1        0.0013
     19 H           5.4610    0.5716    2.1739 H       1  UNL1        0.0660
     20 H           4.8122    0.3178    3.7929 H       1  UNL1        0.0660
     21 H           4.4869    1.8594    2.9853 H       1  UNL1        0.0660
     22 H           4.5166    2.1284    0.6287 H       1  UNL1        0.0654
     23 H           3.5422    2.7468   -1.5321 H       1  UNL1        0.0619
     24 H           1.5032    1.6833   -2.3483 H       1  UNL1        0.0636
     25 H          -0.2765   -0.9541   -0.3410 H       1  UNL1        0.1548
     26 H          -1.5021   -2.0216   -2.4175 H       1  UNL1        0.0407
     27 H          -2.4703   -0.7245   -3.1214 H       1  UNL1        0.0407
     28 H          -3.1620    1.1626   -1.1526 H       1  UNL1        0.0620
     29 H          -4.6076    1.2172    0.8474 H       1  UNL1        0.0618
     30 H          -5.0669   -0.8649    2.1165 H       1  UNL1        0.0618
     31 H          -4.0841   -3.0162    1.3682 H       1  UNL1        0.0618
     32 H          -2.6384   -3.0949   -0.6260 H       1  UNL1        0.0620
     33 H           1.3563   -0.7240    1.2361 H       1  UNL1        0.0673
@<TRIPOS>BOND
     1     1     2    1
     2     2     3    1
     3     3     4   ar
     4     4     5   ar
     5     5     6   ar
     6     6     7   ar
     7     7     8    1
     8     8     9   am
     9     9    10    2
    10     9    11    1
    11    11    12    1
    12    12    13   ar
    13    13    14   ar
    14    14    15   ar
    15    15    16   ar
    16    16    17   ar
    17     7    18   ar
    18    18     3   ar
    19    17    12   ar
    20     1    19    1
    21     1    20    1
    22     1    21    1
    23     4    22    1
    24     5    23    1
    25     6    24    1
    26     8    25    1
    27    11    26    1
    28    11    27    1
    29    13    28    1
    30    14    29    1
    31    15    30    1
    32    16    31    1
    33    17    32    1
    34    18    33    1
