@<TRIPOS>MOLECULE
*****
 41 43 0 0 0
SMALL
GASTEIGER

@<TRIPOS>ATOM
      1 C          -7.5559    0.4389   -2.9318 C.3     1  UNL1        0.0788
      2 O          -6.1839    0.1286   -2.7184 O.3     1  UNL1       -0.4951
      3 C          -5.6640    0.4395   -1.4914 C.ar    1  UNL1        0.1219
      4 C          -6.3578    1.0134   -0.4290 C.ar    1  UNL1       -0.0198
      5 C          -5.6952    1.2768    0.7716 C.ar    1  UNL1       -0.0566
      6 C          -4.3394    0.9692    0.9169 C.ar    1  UNL1       -0.0402
      7 C          -3.6325    0.3929   -0.1371 C.ar    1  UNL1        0.0368
      8 N          -2.2655    0.0477   -0.0782 N.am    1  UNL1       -0.2854
      9 C          -1.3958    0.2210    0.9856 C.2     1  UNL1        0.2177
     10 O          -1.6601    0.7130    2.0763 O.2     1  UNL1       -0.2755
     11 C          -0.0063   -0.2885    0.6551 C.3     1  UNL1        0.0327
     12 C           0.9577   -0.0686    1.8150 C.3     1  UNL1        0.0348
     13 C           2.3094   -0.5582    1.4681 C.ar    1  UNL1        0.2281
     14 N           3.2607    0.0292    0.7814 N.ar    1  UNL1       -0.1912
     15 C           4.2617   -0.9261    0.7728 C.ar    1  UNL1        0.2048
     16 C           5.5414   -0.6860    0.1184 C.ar    1  UNL1        0.0576
     17 C           5.8407    0.5951   -0.3792 C.ar    1  UNL1       -0.0482
     18 C           7.0634    0.8552   -1.0067 C.ar    1  UNL1       -0.0609
     19 C           8.0049   -0.1616   -1.1487 C.ar    1  UNL1       -0.0590
     20 C           7.7218   -1.4367   -0.6644 C.ar    1  UNL1       -0.0257
     21 C           6.5006   -1.6922   -0.0376 C.ar    1  UNL1        0.1342
     22 F           6.2808   -2.9411    0.3998 F       1  UNL1       -0.2047
     23 N           3.9268   -2.0549    1.4193 N.ar    1  UNL1       -0.0560
     24 O           2.6374   -1.8127    1.8807 O.2     1  UNL1       -0.3377
     25 C          -4.3069    0.1321   -1.3379 C.ar    1  UNL1        0.0013
     26 H          -7.8131    0.1381   -3.9521 H       1  UNL1        0.0660
     27 H          -7.7344    1.5159   -2.8452 H       1  UNL1        0.0660
     28 H          -8.1984   -0.1244   -2.2466 H       1  UNL1        0.0660
     29 H          -7.4099    1.2671   -0.4977 H       1  UNL1        0.0654
     30 H          -6.2349    1.7239    1.6027 H       1  UNL1        0.0619
     31 H          -3.8687    1.1922    1.8692 H       1  UNL1        0.0636
     32 H          -1.8845   -0.3730   -0.9175 H       1  UNL1        0.1548
     33 H           0.3522    0.2336   -0.2413 H       1  UNL1        0.0363
     34 H          -0.0768   -1.3583    0.4192 H       1  UNL1        0.0363
     35 H           1.0159    0.9983    2.0620 H       1  UNL1        0.0365
     36 H           0.5947   -0.5803    2.7147 H       1  UNL1        0.0365
     37 H           5.1204    1.4056   -0.2762 H       1  UNL1        0.0625
     38 H           7.2785    1.8536   -1.3815 H       1  UNL1        0.0618
     39 H           8.9564    0.0385   -1.6354 H       1  UNL1        0.0618
     40 H           8.4440   -2.2410   -0.7688 H       1  UNL1        0.0646
     41 H          -3.7852   -0.3157   -2.1795 H       1  UNL1        0.0673
@<TRIPOS>BOND
     1     1     2    1
     2     2     3    1
     3     3     4   ar
     4     4     5   ar
     5     5     6   ar
     6     6     7   ar
     7     7     8    1
     8     8     9   am
     9     9    10    2
    10     9    11    1
    11    11    12    1
    12    12    13    1
    13    13    14   ar
    14    14    15   ar
    15    15    16    1
    16    16    17   ar
    17    17    18   ar
    18    18    19   ar
    19    19    20   ar
    20    20    21   ar
    21    21    22    1
    22    15    23   ar
    23    23    24   ar
    24     7    25   ar
    25    25     3   ar
    26    24    13   ar
    27    21    16   ar
    28     1    26    1
    29     1    27    1
    30     1    28    1
    31     4    29    1
    32     5    30    1
    33     6    31    1
    34     8    32    1
    35    11    33    1
    36    11    34    1
    37    12    35    1
    38    12    36    1
    39    17    37    1
    40    18    38    1
    41    19    39    1
    42    20    40    1
    43    25    41    1
