@<TRIPOS>MOLECULE
*****
 42 44 0 0 0
SMALL
GASTEIGER

@<TRIPOS>ATOM
      1 C           5.7451    3.1347    1.5157 C.3     1  UNL1        0.0788
      2 O           4.4724    2.5668    1.2292 O.3     1  UNL1       -0.4951
      3 C           4.4672    1.3538    0.5957 C.ar    1  UNL1        0.1219
      4 C           5.5910    0.6164    0.2279 C.ar    1  UNL1       -0.0198
      5 C           5.4354   -0.6139   -0.4147 C.ar    1  UNL1       -0.0566
      6 C           4.1596   -1.1124   -0.6927 C.ar    1  UNL1       -0.0402
      7 C           3.0263   -0.3846   -0.3318 C.ar    1  UNL1        0.0368
      8 N           1.7049   -0.8127   -0.5704 N.am    1  UNL1       -0.2854
      9 C           1.2897   -1.9518   -1.2337 C.2     1  UNL1        0.2180
     10 O           2.0051   -2.7976   -1.7630 O.2     1  UNL1       -0.2754
     11 C          -0.2198   -2.0889   -1.2765 C.3     1  UNL1        0.0336
     12 C          -0.8402   -1.2422   -2.3808 C.3     1  UNL1        0.0080
     13 S          -0.9616    0.5414   -1.9722 S.3     1  UNL1       -0.1054
     14 C          -2.4433    0.5741   -0.9766 C.ar    1  UNL1        0.0976
     15 C          -3.0680    1.7914   -0.7501 C.ar    1  UNL1       -0.0292
     16 C          -4.2119    1.8144    0.0419 C.ar    1  UNL1       -0.0501
     17 C          -4.6983    0.6229    0.5914 C.ar    1  UNL1        0.0005
     18 C          -5.8500    0.5931    1.3975 C.ar    1  UNL1       -0.0526
     19 C          -6.3047   -0.6117    1.9304 C.ar    1  UNL1       -0.0611
     20 C          -5.6136   -1.7873    1.6598 C.ar    1  UNL1       -0.0597
     21 C          -4.4695   -1.7528    0.8568 C.ar    1  UNL1       -0.0357
     22 C          -3.9938   -0.5667    0.3131 C.ar    1  UNL1        0.0722
     23 N          -2.8881   -0.5882   -0.4523 N.ar    1  UNL1       -0.2405
     24 C           3.1926    0.8479    0.3143 C.ar    1  UNL1        0.0013
     25 H           5.5779    4.0990    2.0051 H       1  UNL1        0.0660
     26 H           6.3116    2.5035    2.2080 H       1  UNL1        0.0660
     27 H           6.3114    3.3214    0.5973 H       1  UNL1        0.0660
     28 H           6.5987    0.9649    0.4258 H       1  UNL1        0.0654
     29 H           6.3109   -1.1921   -0.7020 H       1  UNL1        0.0619
     30 H           4.0865   -2.0750   -1.1892 H       1  UNL1        0.0636
     31 H           0.9709   -0.1826   -0.2627 H       1  UNL1        0.1548
     32 H          -0.4356   -3.1462   -1.4768 H       1  UNL1        0.0367
     33 H          -0.6356   -1.8780   -0.2857 H       1  UNL1        0.0367
     34 H          -0.2324   -1.3160   -3.2901 H       1  UNL1        0.0385
     35 H          -1.8356   -1.6190   -2.6390 H       1  UNL1        0.0385
     36 H          -2.6819    2.7103   -1.1802 H       1  UNL1        0.0644
     37 H          -4.7154    2.7599    0.2255 H       1  UNL1        0.0625
     38 H          -6.3964    1.5081    1.6147 H       1  UNL1        0.0624
     39 H          -7.1942   -0.6319    2.5541 H       1  UNL1        0.0618
     40 H          -5.9589   -2.7325    2.0706 H       1  UNL1        0.0618
     41 H          -3.9357   -2.6772    0.6498 H       1  UNL1        0.0639
     42 H           2.3274    1.4375    0.6081 H       1  UNL1        0.0673
@<TRIPOS>BOND
     1     1     2    1
     2     2     3    1
     3     3     4   ar
     4     4     5   ar
     5     5     6   ar
     6     6     7   ar
     7     7     8    1
     8     8     9   am
     9     9    10    2
    10     9    11    1
    11    11    12    1
    12    12    13    1
    13    13    14    1
    14    14    15   ar
    15    15    16   ar
    16    16    17   ar
    17    17    18   ar
    18    18    19   ar
    19    19    20   ar
    20    20    21   ar
    21    21    22   ar
    22    22    23   ar
    23     7    24   ar
    24    24     3   ar
    25    23    14   ar
    26    22    17   ar
    27     1    25    1
    28     1    26    1
    29     1    27    1
    30     4    28    1
    31     5    29    1
    32     6    30    1
    33     8    31    1
    34    11    32    1
    35    11    33    1
    36    12    34    1
    37    12    35    1
    38    15    36    1
    39    16    37    1
    40    18    38    1
    41    19    39    1
    42    20    40    1
    43    21    41    1
    44    24    42    1
