@<TRIPOS>MOLECULE
*****
 33 34 0 0 0
SMALL
GASTEIGER

@<TRIPOS>ATOM
      1 C          -5.5716    1.4266    0.0438 C.3     1  UNL1        0.0788
      2 O          -4.1534    1.4994    0.1012 O.3     1  UNL1       -0.4951
      3 C          -3.4604    0.3406   -0.1239 C.ar    1  UNL1        0.1219
      4 C          -4.0238   -0.9121   -0.3639 C.ar    1  UNL1       -0.0198
      5 C          -3.1991   -2.0190   -0.5678 C.ar    1  UNL1       -0.0566
      6 C          -1.8111   -1.8754   -0.5349 C.ar    1  UNL1       -0.0402
      7 C          -1.2312   -0.6227   -0.3053 C.ar    1  UNL1        0.0382
      8 N           0.1778   -0.5612   -0.2715 N.am    1  UNL1       -0.2692
      9 C           0.9686    0.5660   -0.2672 C.2     1  UNL1        0.3066
     10 O           0.5645    1.7120   -0.4402 O.2     1  UNL1       -0.2523
     11 N           2.3195    0.3065   -0.0663 N.am    1  UNL1       -0.2810
     12 C           2.8827   -0.9441    0.4530 C.3     1  UNL1        0.0396
     13 C           4.1792   -0.6917    1.2297 C.3     1  UNL1        0.0635
     14 O           5.1879   -0.0412    0.4481 O.3     1  UNL1       -0.3767
     15 C           4.6724    0.9055   -0.5007 C.3     1  UNL1        0.0635
     16 C           3.2666    1.4174   -0.1756 C.3     1  UNL1        0.0396
     17 C          -2.0660    0.4772   -0.0936 C.ar    1  UNL1        0.0013
     18 H          -5.9658    2.4312    0.2249 H       1  UNL1        0.0660
     19 H          -5.9117    1.1095   -0.9476 H       1  UNL1        0.0660
     20 H          -5.9646    0.7691    0.8263 H       1  UNL1        0.0660
     21 H          -5.0977   -1.0610   -0.3945 H       1  UNL1        0.0654
     22 H          -3.6395   -2.9957   -0.7517 H       1  UNL1        0.0619
     23 H          -1.1936   -2.7549   -0.6954 H       1  UNL1        0.0636
     24 H           0.6602   -1.4234   -0.4646 H       1  UNL1        0.1564
     25 H           3.0834   -1.5790   -0.4173 H       1  UNL1        0.0488
     26 H           2.1551   -1.4474    1.0971 H       1  UNL1        0.0488
     27 H           4.5967   -1.6391    1.5850 H       1  UNL1        0.0575
     28 H           3.9838   -0.0696    2.1111 H       1  UNL1        0.0575
     29 H           4.6749    0.4138   -1.4804 H       1  UNL1        0.0575
     30 H           5.3787    1.7400   -0.5517 H       1  UNL1        0.0575
     31 H           2.9327    2.1235   -0.9431 H       1  UNL1        0.0488
     32 H           3.2624    1.9359    0.7905 H       1  UNL1        0.0488
     33 H          -1.6576    1.4632    0.1081 H       1  UNL1        0.0673
@<TRIPOS>BOND
     1     1     2    1
     2     2     3    1
     3     3     4   ar
     4     4     5   ar
     5     5     6   ar
     6     6     7   ar
     7     7     8    1
     8     8     9   am
     9     9    10    2
    10     9    11   am
    11    11    12    1
    12    12    13    1
    13    13    14    1
    14    14    15    1
    15    15    16    1
    16     7    17   ar
    17    17     3   ar
    18    16    11    1
    19     1    18    1
    20     1    19    1
    21     1    20    1
    22     4    21    1
    23     5    22    1
    24     6    23    1
    25     8    24    1
    26    12    25    1
    27    12    26    1
    28    13    27    1
    29    13    28    1
    30    15    29    1
    31    15    30    1
    32    16    31    1
    33    16    32    1
    34    17    33    1
