@<TRIPOS>MOLECULE
*****
 36 36 0 0 0
SMALL
GASTEIGER

@<TRIPOS>ATOM
      1 C          -2.2342    0.6769   -3.7038 C.3     1  UNL1        0.0790
      2 O          -1.5111    0.3873   -2.5155 O.3     1  UNL1       -0.4913
      3 C          -2.2392    0.2312   -1.3640 C.ar    1  UNL1        0.1652
      4 C          -3.6262    0.0818   -1.3130 C.ar    1  UNL1       -0.0161
      5 C          -4.2712   -0.0812   -0.0840 C.ar    1  UNL1       -0.0546
      6 C          -3.5400   -0.0943    1.1066 C.ar    1  UNL1       -0.0161
      7 C          -2.1524    0.0555    1.0800 C.ar    1  UNL1        0.1652
      8 O          -1.3474    0.0448    2.1898 O.3     1  UNL1       -0.4913
      9 C          -1.9801    0.2569    3.4443 C.3     1  UNL1        0.0790
     10 C          -1.5095    0.1960   -0.1625 C.ar    1  UNL1        0.2038
     11 O          -0.1453    0.3875   -0.2011 O.3     1  UNL1       -0.4839
     12 C           0.5218   -0.8770   -0.2797 C.3     1  UNL1        0.1023
     13 C           2.0428   -0.6538   -0.3512 C.3     1  UNL1        0.0302
     14 N           2.5945   -0.1190    0.9025 N.3     1  UNL1       -0.3106
     15 C           4.0543   -0.1614    0.9540 C.3     1  UNL1        0.0192
     16 C           4.7543    0.8144   -0.0012 C.3     1  UNL1        0.0567
     17 O           6.1710    0.7083    0.1351 O.3     1  UNL1       -0.3938
     18 H          -2.8230   -0.1888   -4.0238 H       1  UNL1        0.0660
     19 H          -1.5076    0.8937   -4.4928 H       1  UNL1        0.0660
     20 H          -2.8668    1.5626   -3.5815 H       1  UNL1        0.0660
     21 H          -4.2346    0.0814   -2.2110 H       1  UNL1        0.0655
     22 H          -5.3519   -0.2000   -0.0540 H       1  UNL1        0.0620
     23 H          -4.0813   -0.2310    2.0367 H       1  UNL1        0.0655
     24 H          -1.1959    0.3888    4.1960 H       1  UNL1        0.0660
     25 H          -2.5915    1.1657    3.4376 H       1  UNL1        0.0660
     26 H          -2.5735   -0.6163    3.7337 H       1  UNL1        0.0660
     27 H           0.2774   -1.5035    0.5878 H       1  UNL1        0.0709
     28 H           0.2094   -1.4063   -1.1890 H       1  UNL1        0.0709
     29 H           2.5129   -1.6172   -0.5810 H       1  UNL1        0.0457
     30 H           2.2570    0.0443   -1.1676 H       1  UNL1        0.0457
     31 H           2.2011   -0.6262    1.6945 H       1  UNL1        0.1221
     32 H           4.4196   -1.1823    0.7854 H       1  UNL1        0.0446
     33 H           4.3682    0.0877    1.9754 H       1  UNL1        0.0446
     34 H           4.4711    1.8469    0.2270 H       1  UNL1        0.0570
     35 H           4.5042    0.6132   -1.0472 H       1  UNL1        0.0570
     36 H           6.4228   -0.1821   -0.1626 H       1  UNL1        0.2095
@<TRIPOS>BOND
     1     1     2    1
     2     2     3    1
     3     3     4   ar
     4     4     5   ar
     5     5     6   ar
     6     6     7   ar
     7     7     8    1
     8     8     9    1
     9     7    10   ar
    10    10    11    1
    11    11    12    1
    12    12    13    1
    13    13    14    1
    14    14    15    1
    15    15    16    1
    16    16    17    1
    17    10     3   ar
    18     1    18    1
    19     1    19    1
    20     1    20    1
    21     4    21    1
    22     5    22    1
    23     6    23    1
    24     9    24    1
    25     9    25    1
    26     9    26    1
    27    12    27    1
    28    12    28    1
    29    13    29    1
    30    13    30    1
    31    14    31    1
    32    15    32    1
    33    15    33    1
    34    16    34    1
    35    16    35    1
    36    17    36    1
