@<TRIPOS>MOLECULE
*****
 31 32 0 0 0
SMALL
GASTEIGER

@<TRIPOS>ATOM
      1 C          -4.4090    2.5033    0.2530 C.3     1  UNL1        0.0790
      2 O          -3.0518    2.1021    0.1227 O.3     1  UNL1       -0.4914
      3 C          -2.8055    0.7704   -0.0682 C.ar    1  UNL1        0.1628
      4 C          -3.7732   -0.2353   -0.1008 C.ar    1  UNL1       -0.0162
      5 C          -3.3994   -1.5695   -0.3020 C.ar    1  UNL1       -0.0575
      6 C          -2.0560   -1.9121   -0.4705 C.ar    1  UNL1       -0.0508
      7 C          -1.0769   -0.9194   -0.4383 C.ar    1  UNL1        0.0220
      8 C           0.3328   -1.2296   -0.6061 C.ar    1  UNL1       -0.0319
      9 C           1.2455   -0.2477   -0.5613 C.ar    1  UNL1        0.1217
     10 C           2.6541   -0.6589   -0.7696 C.2     1  UNL1        0.2531
     11 O           2.9622   -1.1729   -1.8459 O.2     1  UNL1       -0.2698
     12 N           3.5472   -0.5055    0.2821 N.am    1  UNL1       -0.3034
     13 C           3.2292    0.0933    1.5719 C.3     1  UNL1        0.0032
     14 C           4.9585   -0.7464    0.0295 C.3     1  UNL1        0.0032
     15 C           0.8705    1.1657   -0.3788 C.ar    1  UNL1        0.3497
     16 O           1.6996    2.0687   -0.3522 O.2     1  UNL1       -0.2443
     17 O          -0.4851    1.4268   -0.2104 O.2     1  UNL1       -0.4179
     18 C          -1.4635    0.4055   -0.2396 C.ar    1  UNL1        0.1804
     19 H          -4.9814    2.2608   -0.6484 H       1  UNL1        0.0660
     20 H          -4.8668    2.0606    1.1438 H       1  UNL1        0.0660
     21 H          -4.4262    3.5905    0.3757 H       1  UNL1        0.0660
     22 H          -4.8288   -0.0177    0.0265 H       1  UNL1        0.0655
     23 H          -4.1618   -2.3452   -0.3281 H       1  UNL1        0.0619
     24 H          -1.7889   -2.9547   -0.6274 H       1  UNL1        0.0625
     25 H           0.6225   -2.2628   -0.7749 H       1  UNL1        0.0634
     26 H           3.5357    1.1431    1.5562 H       1  UNL1        0.0428
     27 H           3.7803   -0.4339    2.3565 H       1  UNL1        0.0428
     28 H           2.1644    0.0266    1.8027 H       1  UNL1        0.0428
     29 H           5.1303   -1.2442   -0.9282 H       1  UNL1        0.0428
     30 H           5.3606   -1.3764    0.8285 H       1  UNL1        0.0428
     31 H           5.4810    0.2150    0.0247 H       1  UNL1        0.0428
@<TRIPOS>BOND
     1     1     2    1
     2     2     3    1
     3     3     4   ar
     4     4     5   ar
     5     5     6   ar
     6     6     7   ar
     7     7     8   ar
     8     8     9   ar
     9     9    10    1
    10    10    11    2
    11    10    12   am
    12    12    13    1
    13    12    14    1
    14     9    15   ar
    15    15    16    2
    16    15    17   ar
    17    17    18   ar
    18    18     3   ar
    19    18     7   ar
    20     1    19    1
    21     1    20    1
    22     1    21    1
    23     4    22    1
    24     5    23    1
    25     6    24    1
    26     8    25    1
    27    13    26    1
    28    13    27    1
    29    13    28    1
    30    14    29    1
    31    14    30    1
    32    14    31    1
