@<TRIPOS>MOLECULE
*****
 41 44 0 0 0
SMALL
GASTEIGER

@<TRIPOS>ATOM
      1 C          -4.4015   -1.8082    1.8825 C.3     1  UNL1        0.0788
      2 O          -3.3615   -1.3841    1.0092 O.3     1  UNL1       -0.4947
      3 C          -3.3829   -0.0836    0.5789 C.ar    1  UNL1        0.1267
      4 C          -4.3417    0.8602    0.9665 C.ar    1  UNL1       -0.0196
      5 C          -4.2812    2.1729    0.4923 C.ar    1  UNL1       -0.0583
      6 C          -3.2612    2.5578   -0.3696 C.ar    1  UNL1       -0.0612
      7 C          -2.3018    1.6277   -0.7630 C.ar    1  UNL1       -0.0516
      8 C          -2.3518    0.2937   -0.3047 C.ar    1  UNL1        0.0349
      9 C          -1.2829   -0.7039   -0.7411 C.3     1  UNL1        0.1452
     10 C           0.0583   -0.3925   -0.1193 C.2     1  UNL1       -0.0002
     11 C           1.2071   -0.5671   -0.8044 C.2     1  UNL1        0.1487
     12 C           2.5103   -0.2282   -0.1831 C.ar    1  UNL1        0.0168
     13 C           2.8014   -0.5281    1.1559 C.ar    1  UNL1       -0.0510
     14 C           4.0430   -0.1999    1.7117 C.ar    1  UNL1       -0.0582
     15 C           5.0281    0.4176    0.9346 C.ar    1  UNL1       -0.0504
     16 C           6.3478    0.7967    1.5375 C.3     1  UNL1       -0.0397
     17 C           4.7461    0.7187   -0.4013 C.ar    1  UNL1       -0.0582
     18 C           3.5047    0.3897   -0.9549 C.ar    1  UNL1       -0.0510
     19 N           1.2266   -1.0802   -2.0865 N.2     1  UNL1       -0.0682
     20 C           0.0747   -1.1106   -2.6765 C.cat   1  UNL1        0.4663
     21 N          -0.0846   -1.7206   -3.8994 N.2     1  UNL1        0.0667
     22 N          -1.3332   -1.8035   -4.1099 N.2     1  UNL1        0.0302
     23 N          -2.0138   -1.3093   -3.0119 N.pl3   1  UNL1       -0.1011
     24 N          -1.1127   -0.6447   -2.1854 N.pl3   1  UNL1       -0.0986
     25 H          -5.3812   -1.7216    1.4014 H       1  UNL1        0.0660
     26 H          -4.2352   -2.8656    2.1099 H       1  UNL1        0.0660
     27 H          -4.3718   -1.2564    2.8277 H       1  UNL1        0.0660
     28 H          -5.1519    0.6092    1.6434 H       1  UNL1        0.0654
     29 H          -5.0308    2.8968    0.8028 H       1  UNL1        0.0619
     30 H          -3.2092    3.5811   -0.7332 H       1  UNL1        0.0618
     31 H          -1.5042    1.9462   -1.4334 H       1  UNL1        0.0623
     32 H          -1.5567   -1.7256   -0.4511 H       1  UNL1        0.0791
     33 H           0.0552   -0.0007    0.8924 H       1  UNL1        0.0644
     34 H           2.0703   -1.0347    1.7808 H       1  UNL1        0.0625
     35 H           4.2372   -0.4398    2.7546 H       1  UNL1        0.0620
     36 H           6.6293    0.0982    2.3326 H       1  UNL1        0.0278
     37 H           6.2914    1.8060    1.9566 H       1  UNL1        0.0278
     38 H           7.1433    0.7694    0.7854 H       1  UNL1        0.0278
     39 H           5.4913    1.2052   -1.0263 H       1  UNL1        0.0620
     40 H           3.3143    0.6202   -2.0015 H       1  UNL1        0.0625
     41 H          -2.8287   -0.7583   -3.2812 H       1  UNL1        0.2125
@<TRIPOS>BOND
     1     1     2    1
     2     2     3    1
     3     3     4   ar
     4     4     5   ar
     5     5     6   ar
     6     6     7   ar
     7     7     8   ar
     8     8     9    1
     9     9    10    1
    10    10    11    2
    11    11    12    1
    12    12    13   ar
    13    13    14   ar
    14    14    15   ar
    15    15    16    1
    16    15    17   ar
    17    17    18   ar
    18    11    19    1
    19    19    20    2
    20    20    21    1
    21    21    22    2
    22    22    23    1
    23    23    24    1
    24     8     3   ar
    25    24     9    1
    26    18    12   ar
    27    24    20    1
    28     1    25    1
    29     1    26    1
    30     1    27    1
    31     4    28    1
    32     5    29    1
    33     6    30    1
    34     7    31    1
    35     9    32    1
    36    10    33    1
    37    13    34    1
    38    14    35    1
    39    16    36    1
    40    16    37    1
    41    16    38    1
    42    17    39    1
    43    18    40    1
    44    23    41    1
