@<TRIPOS>MOLECULE
*****
 45 52 0 0 0
SMALL
GASTEIGER

@<TRIPOS>ATOM
      1 SI          7.9964   -0.7307    0.4794 Si      1  UNL1        0.0000
      2 C           6.6502   -2.0542    0.7505 C.2     1  UNL1        0.0000
      3 C           5.4160   -1.5595    0.5088 C.2     1  UNL1        0.0000
      4 C           5.3762   -0.1798    0.1120 C.ar    1  UNL1        0.0000
      5 C           6.6317    0.4841    0.0269 C.ar    1  UNL1        0.0000
      6 C           6.5696    1.7888   -0.3479 C.ar    1  UNL1        0.0000
      7 S           4.9248    2.2289   -0.6084 S.2     1  UNL1        0.0000
      8 C           4.3168    0.6476   -0.1981 C.ar    1  UNL1        0.0000
      9 C           2.8734    0.3767   -0.2485 C.ar    1  UNL1        0.0000
     10 C           1.9121    1.3114    0.1264 C.ar    1  UNL1        0.0000
     11 C           0.5534    0.9708    0.0467 C.ar    1  UNL1        0.0000
     12 C          -0.4588    1.8627    0.4067 C.ar    1  UNL1        0.0000
     13 C          -1.8233    1.4929    0.3150 C.ar    1  UNL1        0.0000
     14 C          -2.8329    2.4348    0.6956 C.ar    1  UNL1        0.0000
     15 N          -2.6158    3.6847    1.1497 N.ar    1  UNL1        0.0000
     16 S          -4.0941    4.3593    1.4479 S.2     1  UNL1        0.0000
     17 N          -5.0822    3.1065    1.0194 N.ar    1  UNL1        0.0000
     18 C          -4.2920    2.0911    0.6176 C.ar    1  UNL1        0.0000
     19 C          -4.7362    0.8105    0.1591 C.ar    1  UNL1        0.0000
     20 C          -6.1722    0.5657    0.1169 C.ar    1  UNL1        0.0000
     21 C          -6.7613   -0.6328   -0.3084 C.ar    1  UNL1        0.0000
     22 C          -5.7758   -1.5262   -0.6756 C.ar    1  UNL1        0.0000
     23 C          -6.0139   -2.7904   -1.1412 C.ar    1  UNL1        0.0000
     24 O          -4.8278   -3.3981   -1.4118 O.2     1  UNL1        0.0000
     25 C          -3.8322   -2.5085   -1.1141 C.ar    1  UNL1        0.0000
     26 C          -4.3527   -1.3228   -0.6482 C.ar    1  UNL1        0.0000
     27 C          -3.6798   -0.1246   -0.2227 C.ar    1  UNL1        0.0000
     28 C          -2.2423    0.2106   -0.1434 C.ar    1  UNL1        0.0000
     29 C          -1.1785   -0.6571   -0.4928 C.ar    1  UNL1        0.0000
     30 C           0.1892   -0.3008   -0.4053 C.ar    1  UNL1        0.0000
     31 C           1.2271   -1.1683   -0.7507 C.ar    1  UNL1        0.0000
     32 N           2.5432   -0.8638   -0.6787 N.ar    1  UNL1        0.0000
     33 H           8.6927   -0.4073    1.7498 H       1  UNL1        0.0000
     34 H           8.8865   -1.0915   -0.6522 H       1  UNL1        0.0000
     35 H           6.9064   -3.0566    1.0530 H       1  UNL1        0.0000
     36 H           4.5133   -2.1536    0.5987 H       1  UNL1        0.0000
     37 H           7.3644    2.5084   -0.4902 H       1  UNL1        0.0000
     38 H           2.2074    2.2917    0.4871 H       1  UNL1        0.0000
     39 H          -0.1940    2.8583    0.7628 H       1  UNL1        0.0000
     40 H          -6.8476    1.3635    0.4357 H       1  UNL1        0.0000
     41 H          -7.8281   -0.8021   -0.3356 H       1  UNL1        0.0000
     42 H          -6.8988   -3.3812   -1.3321 H       1  UNL1        0.0000
     43 H          -2.8504   -2.9086   -1.3029 H       1  UNL1        0.0000
     44 H          -1.3843   -1.6567   -0.8482 H       1  UNL1        0.0000
     45 H           1.0239   -2.1742   -1.1097 H       1  UNL1        0.0000
@<TRIPOS>BOND
     1     1     2    1
     2     2     3    2
     3     3     4    1
     4     4     5   ar
     5     5     6   ar
     6     6     7   ar
     7     7     8   ar
     8     8     9    1
     9     9    10   ar
    10    10    11   ar
    11    11    12   ar
    12    12    13   ar
    13    13    14   ar
    14    14    15   ar
    15    15    16   ar
    16    16    17   ar
    17    17    18   ar
    18    18    19   ar
    19    19    20   ar
    20    20    21   ar
    21    21    22   ar
    22    22    23   ar
    23    23    24   ar
    24    24    25   ar
    25    25    26   ar
    26    26    27   ar
    27    27    28   ar
    28    28    29   ar
    29    29    30   ar
    30    30    31   ar
    31    31    32   ar
    32     5     1    1
    33    32     9   ar
    34     8     4   ar
    35    30    11   ar
    36    28    13   ar
    37    18    14   ar
    38    27    19   ar
    39    26    22   ar
    40     1    33    1
    41     1    34    1
    42     2    35    1
    43     3    36    1
    44     6    37    1
    45    10    38    1
    46    12    39    1
    47    20    40    1
    48    21    41    1
    49    23    42    1
    50    25    43    1
    51    29    44    1
    52    31    45    1
