@<TRIPOS>MOLECULE
*****
 39 41 0 0 0
SMALL
GASTEIGER

@<TRIPOS>ATOM
      1 C          -3.7263    0.5935    3.2178 C.3     1  UNL1        0.0788
      2 O          -3.1058    0.4413    1.9486 O.3     1  UNL1       -0.4944
      3 C          -3.9043    0.1126    0.8821 C.ar    1  UNL1        0.1308
      4 C          -5.3050    0.1623    0.9179 C.ar    1  UNL1       -0.0192
      5 C          -6.0584   -0.1421   -0.2181 C.ar    1  UNL1       -0.0583
      6 C          -5.4223   -0.4926   -1.4030 C.ar    1  UNL1       -0.0609
      7 C          -4.0293   -0.5421   -1.4526 C.ar    1  UNL1       -0.0475
      8 C          -3.2518   -0.2482   -0.3170 C.ar    1  UNL1        0.0615
      9 C          -1.7991   -0.3256   -0.4328 C.ar    1  UNL1        0.1715
     10 C          -0.8958   -0.0328   -1.4252 C.ar    1  UNL1        0.0177
     11 C           0.3758   -0.3728   -0.8869 C.ar    1  UNL1        0.1684
     12 C           1.6589   -0.2740   -1.6015 C.2     1  UNL1        0.2683
     13 O           1.6544   -0.3161   -2.8347 O.2     1  UNL1       -0.2682
     14 N           2.8681   -0.1208   -0.8935 N.am    1  UNL1       -0.2962
     15 C           4.0906   -0.5029   -1.5989 C.3     1  UNL1        0.0150
     16 C           5.3129    0.2843   -1.1425 C.3     1  UNL1       -0.0371
     17 C           5.4662    0.2290    0.3710 C.3     1  UNL1       -0.0502
     18 C           4.1957    0.7390    1.0357 C.3     1  UNL1       -0.0371
     19 C           2.9595   -0.0264    0.5660 C.3     1  UNL1        0.0150
     20 N           0.2307   -0.8992    0.3407 N.ar    1  UNL1       -0.0730
     21 O          -1.1211   -0.8487    0.6261 O.2     1  UNL1       -0.3538
     22 H          -4.3606    1.4855    3.2385 H       1  UNL1        0.0660
     23 H          -2.9356    0.7317    3.9615 H       1  UNL1        0.0660
     24 H          -4.2915   -0.3022    3.4961 H       1  UNL1        0.0660
     25 H          -5.8430    0.4481    1.8158 H       1  UNL1        0.0654
     26 H          -7.1441   -0.0993   -0.1764 H       1  UNL1        0.0619
     27 H          -6.0075   -0.7292   -2.2881 H       1  UNL1        0.0618
     28 H          -3.5520   -0.8289   -2.3877 H       1  UNL1        0.0626
     29 H          -1.1018    0.3742   -2.4038 H       1  UNL1        0.0679
     30 H           4.2418   -1.5737   -1.4135 H       1  UNL1        0.0465
     31 H           3.9726   -0.3811   -2.6807 H       1  UNL1        0.0465
     32 H           5.2123    1.3300   -1.4593 H       1  UNL1        0.0280
     33 H           6.2126   -0.1142   -1.6242 H       1  UNL1        0.0280
     34 H           5.6676   -0.8006    0.6900 H       1  UNL1        0.0266
     35 H           6.3211    0.8393    0.6823 H       1  UNL1        0.0266
     36 H           4.2854    0.6642    2.1251 H       1  UNL1        0.0280
     37 H           4.0711    1.8030    0.7972 H       1  UNL1        0.0280
     38 H           2.0865    0.4957    0.9653 H       1  UNL1        0.0465
     39 H           2.9715   -1.0482    0.9625 H       1  UNL1        0.0465
@<TRIPOS>BOND
     1     1     2    1
     2     2     3    1
     3     3     4   ar
     4     4     5   ar
     5     5     6   ar
     6     6     7   ar
     7     7     8   ar
     8     8     9    1
     9     9    10   ar
    10    10    11   ar
    11    11    12    1
    12    12    13    2
    13    12    14   am
    14    14    15    1
    15    15    16    1
    16    16    17    1
    17    17    18    1
    18    18    19    1
    19    11    20   ar
    20    20    21   ar
    21     8     3   ar
    22    21     9   ar
    23    19    14    1
    24     1    22    1
    25     1    23    1
    26     1    24    1
    27     4    25    1
    28     5    26    1
    29     6    27    1
    30     7    28    1
    31    10    29    1
    32    15    30    1
    33    15    31    1
    34    16    32    1
    35    16    33    1
    36    17    34    1
    37    17    35    1
    38    18    36    1
    39    18    37    1
    40    19    38    1
    41    19    39    1
