@<TRIPOS>MOLECULE
*****
 27 29 0 0 0
SMALL
GASTEIGER

@<TRIPOS>ATOM
      1 C          -3.0192    2.1546    1.1061 C.3     1  UNL1        0.0788
      2 O          -1.8677    1.3658    0.8308 O.3     1  UNL1       -0.4944
      3 C          -1.9996    0.3294   -0.0532 C.ar    1  UNL1        0.1298
      4 C          -3.1586    0.0694   -0.7941 C.ar    1  UNL1       -0.0193
      5 C          -3.1903   -0.9730   -1.7267 C.ar    1  UNL1       -0.0583
      6 C          -2.0632   -1.7617   -1.9392 C.ar    1  UNL1       -0.0609
      7 C          -0.9028   -1.5178   -1.2086 C.ar    1  UNL1       -0.0485
      8 C          -0.8745   -0.4887   -0.2545 C.ar    1  UNL1        0.0506
      9 C           0.3874   -0.3053    0.4843 C.ar    1  UNL1        0.1358
     10 N           1.5590   -0.2701   -0.1007 N.ar    1  UNL1       -0.1552
     11 N           2.4652   -0.1323    0.8990 N.ar    1  UNL1       -0.1817
     12 C           3.8204   -0.0279    0.9455 C.ar    1  UNL1        0.2587
     13 C           4.6301   -0.0404   -0.2767 C.3     1  UNL1        0.4542
     14 F           4.3228    0.9895   -1.1088 F       1  UNL1       -0.1631
     15 F           5.9618    0.0584   -0.0228 F       1  UNL1       -0.1631
     16 F           4.4629   -1.1848   -0.9918 F       1  UNL1       -0.1631
     17 N           4.1914    0.0738    2.2199 N.ar    1  UNL1       -0.1223
     18 N           3.0491    0.0319    3.0149 N.ar    1  UNL1       -0.1200
     19 C           2.0529   -0.0895    2.1862 C.ar    1  UNL1        0.2185
     20 S           0.3558   -0.2260    2.2704 S.2     1  UNL1       -0.0261
     21 H          -3.8302    1.5424    1.5140 H       1  UNL1        0.0660
     22 H          -3.3431    2.7008    0.2144 H       1  UNL1        0.0660
     23 H          -2.7441    2.8920    1.8663 H       1  UNL1        0.0660
     24 H          -4.0567    0.6691   -0.6824 H       1  UNL1        0.0654
     25 H          -4.0971   -1.1602   -2.2981 H       1  UNL1        0.0619
     26 H          -2.0878   -2.5631   -2.6739 H       1  UNL1        0.0618
     27 H          -0.0240   -2.1360   -1.3812 H       1  UNL1        0.0625
@<TRIPOS>BOND
     1     1     2    1
     2     2     3    1
     3     3     4   ar
     4     4     5   ar
     5     5     6   ar
     6     6     7   ar
     7     7     8   ar
     8     8     9    1
     9     9    10   ar
    10    10    11   ar
    11    11    12   ar
    12    12    13    1
    13    13    14    1
    14    13    15    1
    15    13    16    1
    16    12    17   ar
    17    17    18   ar
    18    18    19   ar
    19    19    20   ar
    20     8     3   ar
    21    20     9   ar
    22    19    11   ar
    23     1    21    1
    24     1    22    1
    25     1    23    1
    26     4    24    1
    27     5    25    1
    28     6    26    1
    29     7    27    1
