@<TRIPOS>MOLECULE
*****
 30 32 0 0 0
SMALL
GASTEIGER

@<TRIPOS>ATOM
      1 C          -3.9200   -1.2683    1.8795 C.3     1  UNL1        0.0788
      2 O          -2.7149   -0.7724    1.3129 O.3     1  UNL1       -0.4944
      3 C          -2.8076   -0.0029    0.1818 C.ar    1  UNL1        0.1309
      4 C          -4.0120    0.5573   -0.2704 C.ar    1  UNL1       -0.0192
      5 C          -4.0407    1.3748   -1.4031 C.ar    1  UNL1       -0.0583
      6 C          -2.8669    1.6509   -2.0933 C.ar    1  UNL1       -0.0609
      7 C          -1.6623    1.1042   -1.6524 C.ar    1  UNL1       -0.0474
      8 C          -1.6141    0.2683   -0.5195 C.ar    1  UNL1        0.0640
      9 C          -0.3162   -0.2805   -0.1286 C.ar    1  UNL1        0.2059
     10 N          -0.1285   -1.4739    0.4594 N.ar    1  UNL1       -0.0555
     11 O           1.2521   -1.5642    0.6022 O.2     1  UNL1       -0.3325
     12 C           1.7779   -0.4253    0.0668 C.ar    1  UNL1        0.2588
     13 C           3.2270   -0.2823    0.0928 C.ar    1  UNL1        0.0423
     14 C           3.8143    0.8725   -0.4334 C.ar    1  UNL1       -0.0313
     15 C           5.1929    0.9927   -0.4015 C.ar    1  UNL1        0.0283
     16 N           6.0130    0.0529    0.1116 N.ar    1  UNL1       -0.2632
     17 C           5.4311   -1.0545    0.6159 C.ar    1  UNL1        0.0283
     18 C           4.0623   -1.2664    0.6298 C.ar    1  UNL1       -0.0313
     19 N           0.8623    0.3878   -0.4095 N.ar    1  UNL1       -0.1869
     20 H          -4.5137   -1.8169    1.1407 H       1  UNL1        0.0660
     21 H          -3.6509   -1.9688    2.6759 H       1  UNL1        0.0660
     22 H          -4.5005   -0.4584    2.3326 H       1  UNL1        0.0660
     23 H          -4.9496    0.3877    0.2491 H       1  UNL1        0.0654
     24 H          -4.9821    1.8026   -1.7394 H       1  UNL1        0.0619
     25 H          -2.8854    2.2909   -2.9717 H       1  UNL1        0.0618
     26 H          -0.7507    1.3286   -2.2043 H       1  UNL1        0.0626
     27 H           3.2100    1.6674   -0.8606 H       1  UNL1        0.0640
     28 H           5.6880    1.8741   -0.7993 H       1  UNL1        0.0830
     29 H           6.1164   -1.7932    1.0227 H       1  UNL1        0.0830
     30 H           3.6688   -2.1847    1.0538 H       1  UNL1        0.0640
@<TRIPOS>BOND
     1     1     2    1
     2     2     3    1
     3     3     4   ar
     4     4     5   ar
     5     5     6   ar
     6     6     7   ar
     7     7     8   ar
     8     8     9    1
     9     9    10   ar
    10    10    11   ar
    11    11    12   ar
    12    12    13    1
    13    13    14   ar
    14    14    15   ar
    15    15    16   ar
    16    16    17   ar
    17    17    18   ar
    18    12    19   ar
    19     8     3   ar
    20    19     9   ar
    21    18    13   ar
    22     1    20    1
    23     1    21    1
    24     1    22    1
    25     4    23    1
    26     5    24    1
    27     6    25    1
    28     7    26    1
    29    14    27    1
    30    15    28    1
    31    17    29    1
    32    18    30    1
