@<TRIPOS>MOLECULE
*****
 33 34 0 0 0
SMALL
GASTEIGER

@<TRIPOS>ATOM
      1 C           1.3371   -1.7197    1.0086 C.3     1  UNL1        0.0788
      2 O           1.2292   -1.2686   -0.3425 O.3     1  UNL1       -0.4948
      3 C           2.0656   -0.2093   -0.5847 C.ar    1  UNL1        0.1237
      4 C           3.4518   -0.3544   -0.4841 C.ar    1  UNL1       -0.0197
      5 C           4.2868    0.7278   -0.7589 C.ar    1  UNL1       -0.0583
      6 C           3.7380    1.9489   -1.1445 C.ar    1  UNL1       -0.0613
      7 C           2.3540    2.0871   -1.2679 C.ar    1  UNL1       -0.0546
      8 C           1.5013    1.0052   -1.0002 C.ar    1  UNL1        0.0030
      9 C           0.0059    1.1639   -1.1484 C.3     1  UNL1        0.0527
     10 C          -0.7280    1.1479    0.1870 C.2     1  UNL1        0.2200
     11 O          -0.4125    1.9224    1.0947 O.2     1  UNL1       -0.2752
     12 N          -1.7771    0.2659    0.3380 N.am    1  UNL1       -0.3012
     13 C          -2.5499    0.2277    1.5666 C.3     1  UNL1        0.0147
     14 C          -3.7655   -0.6189    1.2219 C.3     1  UNL1       -0.0357
     15 C          -3.2149   -1.5937    0.1897 C.3     1  UNL1       -0.0357
     16 C          -2.2410   -0.7369   -0.6085 C.3     1  UNL1        0.0147
     17 H           0.4589   -2.3359    1.2241 H       1  UNL1        0.0660
     18 H           1.3449   -0.8848    1.7188 H       1  UNL1        0.0660
     19 H           2.2263   -2.3445    1.1388 H       1  UNL1        0.0660
     20 H           3.8888   -1.3081   -0.2052 H       1  UNL1        0.0654
     21 H           5.3646    0.6183   -0.6751 H       1  UNL1        0.0619
     22 H           4.3873    2.7954   -1.3530 H       1  UNL1        0.0618
     23 H           1.9440    3.0486   -1.5689 H       1  UNL1        0.0622
     24 H          -0.2318    2.1248   -1.6224 H       1  UNL1        0.0408
     25 H          -0.3575    0.4029   -1.8431 H       1  UNL1        0.0408
     26 H          -1.9336   -0.2512    2.3358 H       1  UNL1        0.0464
     27 H          -2.8150    1.2359    1.8990 H       1  UNL1        0.0464
     28 H          -4.5416    0.0058    0.7636 H       1  UNL1        0.0281
     29 H          -4.1951   -1.1163    2.0955 H       1  UNL1        0.0281
     30 H          -2.6733   -2.4015    0.6970 H       1  UNL1        0.0281
     31 H          -3.9919   -2.0421   -0.4352 H       1  UNL1        0.0281
     32 H          -2.7442   -0.2164   -1.4303 H       1  UNL1        0.0464
     33 H          -1.4115   -1.3262   -1.0063 H       1  UNL1        0.0464
@<TRIPOS>BOND
     1     1     2    1
     2     2     3    1
     3     3     4   ar
     4     4     5   ar
     5     5     6   ar
     6     6     7   ar
     7     7     8   ar
     8     8     9    1
     9     9    10    1
    10    10    11    2
    11    10    12   am
    12    12    13    1
    13    13    14    1
    14    14    15    1
    15    15    16    1
    16     8     3   ar
    17    16    12    1
    18     1    17    1
    19     1    18    1
    20     1    19    1
    21     4    20    1
    22     5    21    1
    23     6    22    1
    24     7    23    1
    25     9    24    1
    26     9    25    1
    27    13    26    1
    28    13    27    1
    29    14    28    1
    30    14    29    1
    31    15    30    1
    32    15    31    1
    33    16    32    1
    34    16    33    1
