@<TRIPOS>MOLECULE
*****
 44 46 0 0 0
SMALL
GASTEIGER

@<TRIPOS>ATOM
      1 C          -2.6326   -0.4155   -2.0628 C.3     1  UNL1        0.0788
      2 O          -2.5527   -0.6047   -0.6559 O.3     1  UNL1       -0.4948
      3 C          -3.6148   -0.1733    0.0947 C.ar    1  UNL1        0.1237
      4 C          -4.8476    0.2296   -0.4285 C.ar    1  UNL1       -0.0197
      5 C          -5.8729    0.6523    0.4213 C.ar    1  UNL1       -0.0583
      6 C          -5.6748    0.6765    1.7983 C.ar    1  UNL1       -0.0613
      7 C          -4.4525    0.2710    2.3303 C.ar    1  UNL1       -0.0546
      8 C          -3.4170   -0.1659    1.4880 C.ar    1  UNL1        0.0030
      9 C          -2.0930   -0.5883    2.0899 C.3     1  UNL1        0.0527
     10 C          -1.0392    0.5126    2.0090 C.2     1  UNL1        0.2201
     11 O          -1.2735    1.6326    2.4741 O.2     1  UNL1       -0.2752
     12 N           0.1855    0.2169    1.4299 N.am    1  UNL1       -0.2982
     13 C           0.5818   -1.1063    0.9328 C.3     1  UNL1        0.0305
     14 C           2.0659   -1.1934    0.5294 C.3     1  UNL1        0.0293
     15 N           2.4035   -0.1198   -0.4172 N.pl3   1  UNL1       -0.3122
     16 C           3.6675   -0.2079   -0.9997 C.ar    1  UNL1        0.1213
     17 C           4.0497    0.6734   -2.0141 C.ar    1  UNL1       -0.0217
     18 C           5.3109    0.5664   -2.6002 C.ar    1  UNL1       -0.0571
     19 C           6.1729   -0.4286   -2.1707 C.ar    1  UNL1       -0.0435
     20 C           5.7265   -1.2769   -1.1767 C.ar    1  UNL1        0.0297
     21 N           4.5073   -1.1882   -0.5978 N.ar    1  UNL1       -0.2403
     22 C           1.8930    1.2274   -0.0936 C.3     1  UNL1        0.0293
     23 C           1.1787    1.2808    1.2710 C.3     1  UNL1        0.0305
     24 H          -3.4015   -1.0597   -2.5012 H       1  UNL1        0.0660
     25 H          -1.6697   -0.7074   -2.4931 H       1  UNL1        0.0660
     26 H          -2.8043    0.6362   -2.3151 H       1  UNL1        0.0660
     27 H          -5.0452    0.2241   -1.4950 H       1  UNL1        0.0654
     28 H          -6.8263    0.9679    0.0055 H       1  UNL1        0.0619
     29 H          -6.4685    1.0163    2.4582 H       1  UNL1        0.0618
     30 H          -4.3041    0.3092    3.4073 H       1  UNL1        0.0622
     31 H          -2.2183   -0.8322    3.1526 H       1  UNL1        0.0408
     32 H          -1.7810   -1.5219    1.6175 H       1  UNL1        0.0408
     33 H          -0.0468   -1.3261    0.0629 H       1  UNL1        0.0480
     34 H           0.3698   -1.8515    1.7066 H       1  UNL1        0.0480
     35 H           2.2340   -2.1795    0.0787 H       1  UNL1        0.0480
     36 H           2.6937   -1.1160    1.4269 H       1  UNL1        0.0480
     37 H           3.3641    1.4339   -2.3715 H       1  UNL1        0.0652
     38 H           5.6070    1.2507   -3.3894 H       1  UNL1        0.0619
     39 H           7.1598   -0.5461   -2.6022 H       1  UNL1        0.0633
     40 H           6.3542   -2.0808   -0.8039 H       1  UNL1        0.0830
     41 H           2.6941    1.9768   -0.0753 H       1  UNL1        0.0480
     42 H           1.1848    1.5151   -0.8800 H       1  UNL1        0.0480
     43 H           1.9086    1.1524    2.0798 H       1  UNL1        0.0480
     44 H           0.7232    2.2678    1.4012 H       1  UNL1        0.0480
@<TRIPOS>BOND
     1     1     2    1
     2     2     3    1
     3     3     4   ar
     4     4     5   ar
     5     5     6   ar
     6     6     7   ar
     7     7     8   ar
     8     8     9    1
     9     9    10    1
    10    10    11    2
    11    10    12   am
    12    12    13    1
    13    13    14    1
    14    14    15    1
    15    15    16    1
    16    16    17   ar
    17    17    18   ar
    18    18    19   ar
    19    19    20   ar
    20    20    21   ar
    21    15    22    1
    22    22    23    1
    23     8     3   ar
    24    23    12    1
    25    21    16   ar
    26     1    24    1
    27     1    25    1
    28     1    26    1
    29     4    27    1
    30     5    28    1
    31     6    29    1
    32     7    30    1
    33     9    31    1
    34     9    32    1
    35    13    33    1
    36    13    34    1
    37    14    35    1
    38    14    36    1
    39    17    37    1
    40    18    38    1
    41    19    39    1
    42    20    40    1
    43    22    41    1
    44    22    42    1
    45    23    43    1
    46    23    44    1
