@<TRIPOS>MOLECULE
*****
 44 45 0 0 0
SMALL
GASTEIGER

@<TRIPOS>ATOM
      1 C          -4.0868   -2.1742    1.8577 C.3     1  UNL1        0.0788
      2 O          -3.4495   -1.4295    0.8268 O.3     1  UNL1       -0.4948
      3 C          -3.1943   -0.1052    1.0772 C.ar    1  UNL1        0.1247
      4 C          -3.3767    0.5204    2.3155 C.ar    1  UNL1       -0.0196
      5 C          -3.0635    1.8726    2.4803 C.ar    1  UNL1       -0.0583
      6 C          -2.5597    2.6091    1.4132 C.ar    1  UNL1       -0.0612
      7 C          -2.3739    1.9958    0.1765 C.ar    1  UNL1       -0.0536
      8 C          -2.6960    0.6403   -0.0079 C.ar    1  UNL1        0.0113
      9 C          -2.4630    0.0091   -1.3594 C.3     1  UNL1        0.0406
     10 N          -1.2500   -0.7766   -1.3617 N.am    1  UNL1       -0.3071
     11 C          -0.0360   -0.2215   -1.7063 C.2     1  UNL1        0.2462
     12 O           0.1003    0.9017   -2.1685 O.2     1  UNL1       -0.2701
     13 C           1.1321   -1.0956   -1.4592 C.ar    1  UNL1        0.0592
     14 C           1.1085   -2.3851   -2.0188 C.ar    1  UNL1       -0.0478
     15 C           2.1787   -3.2575   -1.8238 C.ar    1  UNL1       -0.0609
     16 C           3.2773   -2.8477   -1.0733 C.ar    1  UNL1       -0.0599
     17 C           3.3063   -1.5663   -0.5176 C.ar    1  UNL1       -0.0384
     18 C           2.2350   -0.6794   -0.6967 C.ar    1  UNL1        0.0626
     19 N           2.3688    0.6163   -0.0899 N.pl3   1  UNL1       -0.2099
     20 C           1.3622    1.0664    0.8822 C.3     1  UNL1        0.0232
     21 S           3.1713    1.8176   -0.9915 S.O2    1  UNL1        0.0424
     22 C           4.5748    2.0787    0.0674 C.3     1  UNL1        0.0738
     23 O           3.6919    1.2635   -2.2240 O.2     1  UNL1       -0.1553
     24 O           2.4040    3.0451   -0.9561 O.2     1  UNL1       -0.1553
     25 H          -3.4334   -2.2743    2.7305 H       1  UNL1        0.0660
     26 H          -4.2805   -3.1795    1.4714 H       1  UNL1        0.0660
     27 H          -5.0504   -1.7314    2.1307 H       1  UNL1        0.0660
     28 H          -3.7561   -0.0165    3.1784 H       1  UNL1        0.0654
     29 H          -3.2091    2.3498    3.4461 H       1  UNL1        0.0619
     30 H          -2.3066    3.6585    1.5408 H       1  UNL1        0.0618
     31 H          -1.9594    2.5745   -0.6491 H       1  UNL1        0.0622
     32 H          -3.2942   -0.6557   -1.6189 H       1  UNL1        0.0513
     33 H          -2.4139    0.7738   -2.1433 H       1  UNL1        0.0513
     34 H          -1.2671   -1.6234   -0.8093 H       1  UNL1        0.1493
     35 H           0.2663   -2.7022   -2.6301 H       1  UNL1        0.0626
     36 H           2.1621   -4.2492   -2.2695 H       1  UNL1        0.0618
     37 H           4.1195   -3.5203   -0.9290 H       1  UNL1        0.0618
     38 H           4.1752   -1.2618    0.0596 H       1  UNL1        0.0637
     39 H           0.9339    0.2151    1.4217 H       1  UNL1        0.0446
     40 H           1.8295    1.7183    1.6265 H       1  UNL1        0.0446
     41 H           0.5517    1.6108    0.3942 H       1  UNL1        0.0446
     42 H           5.2005    2.8500   -0.3876 H       1  UNL1        0.0482
     43 H           5.1405    1.1490    0.1502 H       1  UNL1        0.0482
     44 H           4.2301    2.4163    1.0464 H       1  UNL1        0.0482
@<TRIPOS>BOND
     1     1     2    1
     2     2     3    1
     3     3     4   ar
     4     4     5   ar
     5     5     6   ar
     6     6     7   ar
     7     7     8   ar
     8     8     9    1
     9     9    10    1
    10    10    11   am
    11    11    12    2
    12    11    13    1
    13    13    14   ar
    14    14    15   ar
    15    15    16   ar
    16    16    17   ar
    17    17    18   ar
    18    18    19    1
    19    19    20    1
    20    19    21    1
    21    21    22    1
    22    21    23    2
    23    21    24    2
    24     8     3   ar
    25    18    13   ar
    26     1    25    1
    27     1    26    1
    28     1    27    1
    29     4    28    1
    30     5    29    1
    31     6    30    1
    32     7    31    1
    33     9    32    1
    34     9    33    1
    35    10    34    1
    36    14    35    1
    37    15    36    1
    38    16    37    1
    39    17    38    1
    40    20    39    1
    41    20    40    1
    42    20    41    1
    43    22    42    1
    44    22    43    1
    45    22    44    1
