@<TRIPOS>MOLECULE
*****
 37 38 0 0 0
SMALL
GASTEIGER

@<TRIPOS>ATOM
      1 C          -3.8277    2.2486    1.5836 C.3     1  UNL1        0.0788
      2 O          -2.7785    1.5958    0.8800 O.3     1  UNL1       -0.4948
      3 C          -3.0792    0.4251    0.2344 C.ar    1  UNL1        0.1247
      4 C          -4.3565   -0.1477    0.1910 C.ar    1  UNL1       -0.0196
      5 C          -4.5806   -1.3382   -0.5056 C.ar    1  UNL1       -0.0583
      6 C          -3.5333   -1.9660   -1.1699 C.ar    1  UNL1       -0.0612
      7 C          -2.2589   -1.4052   -1.1334 C.ar    1  UNL1       -0.0536
      8 C          -2.0109   -0.2138   -0.4235 C.ar    1  UNL1        0.0112
      9 C          -0.6113    0.3715   -0.4324 C.3     1  UNL1        0.0378
     10 N           0.3596   -0.6550   -0.0511 N.pl3   1  UNL1       -0.3394
     11 C           1.7164   -0.3220    0.0858 C.ar    1  UNL1        0.0306
     12 C           2.2826    0.8004   -0.5428 C.ar    1  UNL1       -0.0377
     13 C           3.6511    1.0994   -0.4442 C.ar    1  UNL1       -0.0487
     14 C           4.2152    2.3022   -1.1405 C.3     1  UNL1       -0.0397
     15 C           4.4861    0.2292    0.2539 C.ar    1  UNL1       -0.0585
     16 C           3.9594   -0.9152    0.8476 C.ar    1  UNL1       -0.0568
     17 C           2.5879   -1.2102    0.7558 C.ar    1  UNL1       -0.0296
     18 C           2.0843   -2.4786    1.3936 C.3     1  UNL1       -0.0380
     19 H          -4.6219    2.5671    0.9006 H       1  UNL1        0.0660
     20 H          -3.4094    3.1468    2.0479 H       1  UNL1        0.0660
     21 H          -4.2220    1.6138    2.3840 H       1  UNL1        0.0660
     22 H          -5.2060    0.3101    0.6868 H       1  UNL1        0.0654
     23 H          -5.5770   -1.7717   -0.5324 H       1  UNL1        0.0619
     24 H          -3.7059   -2.8887   -1.7174 H       1  UNL1        0.0618
     25 H          -1.4431   -1.8994   -1.6597 H       1  UNL1        0.0622
     26 H          -0.5285    1.2176    0.2579 H       1  UNL1        0.0512
     27 H          -0.4169    0.7361   -1.4481 H       1  UNL1        0.0512
     28 H           0.0272   -1.1808    0.7528 H       1  UNL1        0.1464
     29 H           1.6603    1.4724   -1.1264 H       1  UNL1        0.0639
     30 H           5.1132    2.6655   -0.6298 H       1  UNL1        0.0278
     31 H           4.4743    2.0495   -2.1732 H       1  UNL1        0.0278
     32 H           3.4913    3.1239   -1.1466 H       1  UNL1        0.0278
     33 H           5.5525    0.4271    0.3291 H       1  UNL1        0.0620
     34 H           4.6310   -1.5889    1.3751 H       1  UNL1        0.0621
     35 H           1.5330   -3.0817    0.6648 H       1  UNL1        0.0278
     36 H           1.4342   -2.2423    2.2420 H       1  UNL1        0.0278
     37 H           2.9078   -3.0968    1.7669 H       1  UNL1        0.0278
@<TRIPOS>BOND
     1     1     2    1
     2     2     3    1
     3     3     4   ar
     4     4     5   ar
     5     5     6   ar
     6     6     7   ar
     7     7     8   ar
     8     8     9    1
     9     9    10    1
    10    10    11    1
    11    11    12   ar
    12    12    13   ar
    13    13    14    1
    14    13    15   ar
    15    15    16   ar
    16    16    17   ar
    17    17    18    1
    18     8     3   ar
    19    17    11   ar
    20     1    19    1
    21     1    20    1
    22     1    21    1
    23     4    22    1
    24     5    23    1
    25     6    24    1
    26     7    25    1
    27     9    26    1
    28     9    27    1
    29    10    28    1
    30    12    29    1
    31    14    30    1
    32    14    31    1
    33    14    32    1
    34    15    33    1
    35    16    34    1
    36    18    35    1
    37    18    36    1
    38    18    37    1
