@<TRIPOS>MOLECULE
*****
 34 35 0 0 0
SMALL
GASTEIGER

@<TRIPOS>ATOM
      1 C          -3.6931    2.1040   -1.9744 C.3     1  UNL1        0.0788
      2 O          -2.7206    1.4867   -1.1405 O.3     1  UNL1       -0.4948
      3 C          -3.0993    0.3693   -0.4436 C.ar    1  UNL1        0.1247
      4 C          -4.3860   -0.1829   -0.4743 C.ar    1  UNL1       -0.0196
      5 C          -4.6921   -1.3194    0.2789 C.ar    1  UNL1       -0.0583
      6 C          -3.7183   -1.9137    1.0733 C.ar    1  UNL1       -0.0612
      7 C          -2.4354   -1.3729    1.1117 C.ar    1  UNL1       -0.0536
      8 C          -2.1053   -0.2351    0.3494 C.ar    1  UNL1        0.0112
      9 C          -0.7006    0.3280    0.4412 C.3     1  UNL1        0.0378
     10 N           0.2756   -0.7246    0.1561 N.pl3   1  UNL1       -0.3396
     11 C           1.6374   -0.4131    0.1135 C.ar    1  UNL1        0.0274
     12 C           2.5086   -1.3229   -0.5046 C.ar    1  UNL1       -0.0401
     13 C           3.8917   -1.1119   -0.5246 C.ar    1  UNL1       -0.0460
     14 C           4.4370    0.0091    0.1042 C.ar    1  UNL1        0.0589
     15 C           5.9068    0.1976    0.0630 C.2     1  UNL1        0.3368
     16 O           6.7065   -0.5412   -0.4812 O.2     1  UNL1       -0.2451
     17 O           6.3099    1.3082    0.7058 O.3     1  UNL1       -0.4771
     18 C           3.5886    0.9044    0.7601 C.ar    1  UNL1       -0.0460
     19 C           2.2048    0.6828    0.7743 C.ar    1  UNL1       -0.0401
     20 H          -3.2191    2.9623   -2.4603 H       1  UNL1        0.0660
     21 H          -4.0300    1.4212   -2.7613 H       1  UNL1        0.0660
     22 H          -4.5363    2.4797   -1.3856 H       1  UNL1        0.0660
     23 H          -5.1802    0.2496   -1.0737 H       1  UNL1        0.0654
     24 H          -5.6950   -1.7376    0.2467 H       1  UNL1        0.0619
     25 H          -3.9552   -2.7951    1.6634 H       1  UNL1        0.0618
     26 H          -1.6773   -1.8416    1.7380 H       1  UNL1        0.0622
     27 H          -0.5688    0.7180    1.4578 H       1  UNL1        0.0512
     28 H          -0.5534    1.1557   -0.2606 H       1  UNL1        0.0512
     29 H          -0.0082   -1.2796   -0.6485 H       1  UNL1        0.1464
     30 H           2.1116   -2.2166   -0.9810 H       1  UNL1        0.0636
     31 H           4.5365   -1.8318   -1.0243 H       1  UNL1        0.0626
     32 H           7.2838    1.2992    0.5968 H       1  UNL1        0.2954
     33 H           3.9894    1.7743    1.2744 H       1  UNL1        0.0626
     34 H           1.5858    1.3900    1.3183 H       1  UNL1        0.0636
@<TRIPOS>BOND
     1     1     2    1
     2     2     3    1
     3     3     4   ar
     4     4     5   ar
     5     5     6   ar
     6     6     7   ar
     7     7     8   ar
     8     8     9    1
     9     9    10    1
    10    10    11    1
    11    11    12   ar
    12    12    13   ar
    13    13    14   ar
    14    14    15    1
    15    15    16    2
    16    15    17    1
    17    14    18   ar
    18    18    19   ar
    19     8     3   ar
    20    19    11   ar
    21     1    20    1
    22     1    21    1
    23     1    22    1
    24     4    23    1
    25     5    24    1
    26     6    25    1
    27     7    26    1
    28     9    27    1
    29     9    28    1
    30    10    29    1
    31    12    30    1
    32    13    31    1
    33    17    32    1
    34    18    33    1
    35    19    34    1
