@<TRIPOS>MOLECULE
*****
 46 48 0 0 0
SMALL
GASTEIGER

@<TRIPOS>ATOM
      1 C          -0.1207   -4.5926   -0.0614 C.3     1  UNL1        0.0789
      2 O          -0.4925   -3.2309   -0.2191 O.3     1  UNL1       -0.4932
      3 C          -0.9622   -2.5598    0.8804 C.ar    1  UNL1        0.1418
      4 C          -1.2214   -3.1660    2.1156 C.ar    1  UNL1       -0.0181
      5 C          -1.7549   -2.4248    3.1726 C.ar    1  UNL1       -0.0582
      6 C          -2.0369   -1.0731    3.0073 C.ar    1  UNL1       -0.0598
      7 C          -1.7832   -0.4557    1.7831 C.ar    1  UNL1       -0.0363
      8 C          -1.2453   -1.1855    0.7073 C.ar    1  UNL1        0.0862
      9 N          -0.9429   -0.5149   -0.5288 N.am    1  UNL1       -0.1995
     10 C           0.3220   -0.6386   -1.1078 C.2     1  UNL1        0.3128
     11 O           0.5226   -0.6489   -2.3230 O.2     1  UNL1       -0.2519
     12 N           1.3606   -0.8057   -0.2068 N.am    1  UNL1       -0.2945
     13 C           2.7373   -0.8146   -0.6415 C.3     1  UNL1        0.0383
     14 C           3.3804    0.5291   -0.4084 C.ar    1  UNL1       -0.0303
     15 C           3.0797    1.6108   -1.2493 C.ar    1  UNL1       -0.0571
     16 C           3.6553    2.8624   -1.0278 C.ar    1  UNL1       -0.0615
     17 C           4.5349    3.0469    0.0371 C.ar    1  UNL1       -0.0617
     18 C           4.8372    1.9811    0.8830 C.ar    1  UNL1       -0.0615
     19 C           4.2611    0.7282    0.6642 C.ar    1  UNL1       -0.0571
     20 C          -1.8067    0.4033   -1.0982 C.2     1  UNL1        0.1643
     21 N          -1.4262    1.4266   -1.7924 N.2     1  UNL1       -0.2616
     22 C          -2.5937    2.1352   -2.3475 C.3     1  UNL1        0.0542
     23 C          -3.8194    1.8928   -1.4753 C.3     1  UNL1        0.0292
     24 C          -3.8983    2.8518   -0.2934 C.3     1  UNL1       -0.0512
     25 S          -3.5428    0.2045   -0.8938 S.3     1  UNL1       -0.0850
     26 H          -0.9908   -5.2123    0.1781 H       1  UNL1        0.0660
     27 H           0.2830   -4.9415   -1.0168 H       1  UNL1        0.0660
     28 H           0.6657   -4.7040    0.6924 H       1  UNL1        0.0660
     29 H          -1.0329   -4.2211    2.2851 H       1  UNL1        0.0655
     30 H          -1.9565   -2.9083    4.1258 H       1  UNL1        0.0619
     31 H          -2.4508   -0.4975    3.8317 H       1  UNL1        0.0618
     32 H          -1.9818    0.6097    1.6905 H       1  UNL1        0.0637
     33 H           1.1887   -0.4943    0.7368 H       1  UNL1        0.1506
     34 H           2.8220   -1.0967   -1.6966 H       1  UNL1        0.0512
     35 H           3.2490   -1.5877   -0.0577 H       1  UNL1        0.0512
     36 H           2.3870    1.4799   -2.0806 H       1  UNL1        0.0621
     37 H           3.4133    3.6920   -1.6871 H       1  UNL1        0.0618
     38 H           4.9831    4.0220    0.2077 H       1  UNL1        0.0618
     39 H           5.5223    2.1265    1.7141 H       1  UNL1        0.0618
     40 H           4.5059   -0.0915    1.3355 H       1  UNL1        0.0621
     41 H          -2.3702    3.2051   -2.4237 H       1  UNL1        0.0520
     42 H          -2.7667    1.7733   -3.3693 H       1  UNL1        0.0520
     43 H          -4.7400    1.9556   -2.0637 H       1  UNL1        0.0432
     44 H          -4.0404    3.8780   -0.6498 H       1  UNL1        0.0241
     45 H          -2.9873    2.8413    0.3157 H       1  UNL1        0.0241
     46 H          -4.7471    2.6098    0.3557 H       1  UNL1        0.0241
@<TRIPOS>BOND
     1     1     2    1
     2     2     3    1
     3     3     4   ar
     4     4     5   ar
     5     5     6   ar
     6     6     7   ar
     7     7     8   ar
     8     8     9    1
     9     9    10   am
    10    10    11    2
    11    10    12   am
    12    12    13    1
    13    13    14    1
    14    14    15   ar
    15    15    16   ar
    16    16    17   ar
    17    17    18   ar
    18    18    19   ar
    19     9    20    1
    20    20    21    2
    21    21    22    1
    22    22    23    1
    23    23    24    1
    24    23    25    1
    25     8     3   ar
    26    19    14   ar
    27    25    20    1
    28     1    26    1
    29     1    27    1
    30     1    28    1
    31     4    29    1
    32     5    30    1
    33     6    31    1
    34     7    32    1
    35    12    33    1
    36    13    34    1
    37    13    35    1
    38    15    36    1
    39    16    37    1
    40    17    38    1
    41    18    39    1
    42    19    40    1
    43    22    41    1
    44    22    42    1
    45    23    43    1
    46    24    44    1
    47    24    45    1
    48    24    46    1
