@<TRIPOS>MOLECULE
*****
 36 38 0 0 0
SMALL
GASTEIGER

@<TRIPOS>ATOM
      1 C           2.4169   -0.1990    3.2701 C.3     1  UNL1        0.0789
      2 O           1.7614   -0.3045    2.0124 O.3     1  UNL1       -0.4933
      3 C           2.5387   -0.6510    0.9301 C.ar    1  UNL1        0.1412
      4 C           3.9137   -0.9026    0.9837 C.ar    1  UNL1       -0.0181
      5 C           4.6096   -1.2453   -0.1770 C.ar    1  UNL1       -0.0582
      6 C           3.9377   -1.3368   -1.3925 C.ar    1  UNL1       -0.0598
      7 C           2.5651   -1.0878   -1.4566 C.ar    1  UNL1       -0.0369
      8 C           1.8557   -0.7470   -0.3029 C.ar    1  UNL1        0.0756
      9 N           0.4680   -0.4775   -0.2904 N.am    1  UNL1       -0.2823
     10 C          -0.4271   -0.5335   -1.3444 C.2     1  UNL1        0.2241
     11 O          -0.1723   -0.8978   -2.4865 O.2     1  UNL1       -0.2750
     12 C          -1.8319   -0.1523   -0.9145 C.3     1  UNL1        0.0811
     13 C          -2.8130   -0.1103   -2.0984 C.3     1  UNL1        0.0896
     14 C          -4.2101   -0.0603   -1.5466 C.2     1  UNL1       -0.0564
     15 C          -4.3528    1.1602   -1.0124 C.2     1  UNL1       -0.0563
     16 C          -3.0522    1.8777   -1.2437 C.3     1  UNL1        0.0914
     17 O          -2.6952    1.2794   -2.5193 O.3     1  UNL1       -0.3637
     18 C          -1.9046    1.3140   -0.4015 C.3     1  UNL1        0.0996
     19 C          -2.1607    1.4281    1.0682 C.2     1  UNL1        0.3115
     20 O          -2.8981    2.2191    1.6292 O.2     1  UNL1       -0.2506
     21 O          -1.3896    0.5862    1.7887 O.3     1  UNL1       -0.4803
     22 H           3.1776    0.5884    3.2545 H       1  UNL1        0.0660
     23 H           1.6652    0.0809    4.0145 H       1  UNL1        0.0660
     24 H           2.8441   -1.1600    3.5750 H       1  UNL1        0.0660
     25 H           4.4749   -0.8409    1.9095 H       1  UNL1        0.0655
     26 H           5.6783   -1.4402   -0.1333 H       1  UNL1        0.0619
     27 H           4.4792   -1.6017   -2.2974 H       1  UNL1        0.0618
     28 H           2.0794   -1.1654   -2.4239 H       1  UNL1        0.0637
     29 H           0.1090   -0.2413    0.6355 H       1  UNL1        0.1549
     30 H          -2.1519   -0.8981   -0.1742 H       1  UNL1        0.0432
     31 H          -2.6640   -0.7919   -2.9371 H       1  UNL1        0.0648
     32 H          -4.9269   -0.8654   -1.5483 H       1  UNL1        0.0595
     33 H          -5.2099    1.5539   -0.4894 H       1  UNL1        0.0595
     34 H          -3.1208    2.9639   -1.3239 H       1  UNL1        0.0649
     35 H          -0.9801    1.8595   -0.6303 H       1  UNL1        0.0451
     36 H          -1.6135    0.7992    2.7217 H       1  UNL1        0.2951
@<TRIPOS>BOND
     1     1     2    1
     2     2     3    1
     3     3     4   ar
     4     4     5   ar
     5     5     6   ar
     6     6     7   ar
     7     7     8   ar
     8     8     9    1
     9     9    10   am
    10    10    11    2
    11    10    12    1
    12    12    13    1
    13    13    14    1
    14    14    15    2
    15    15    16    1
    16    16    17    1
    17    16    18    1
    18    18    19    1
    19    19    20    2
    20    19    21    1
    21     8     3   ar
    22    18    12    1
    23    17    13    1
    24     1    22    1
    25     1    23    1
    26     1    24    1
    27     4    25    1
    28     5    26    1
    29     6    27    1
    30     7    28    1
    31     9    29    1
    32    12    30    1
    33    13    31    1
    34    14    32    1
    35    15    33    1
    36    16    34    1
    37    18    35    1
    38    21    36    1
