@<TRIPOS>MOLECULE
*****
 44 51 0 0 0
SMALL
GASTEIGER

@<TRIPOS>ATOM
      1 SI          7.8998   -0.0266   -0.0086 Si      1  UNL1        0.0000
      2 C           6.8649   -1.5524    0.4540 C.2     1  UNL1        0.0000
      3 C           5.5395   -1.2995    0.3759 C.2     1  UNL1        0.0000
      4 C           5.1846    0.0333   -0.0293 C.ar    1  UNL1        0.0000
      5 C           6.2860    0.9020   -0.2922 C.ar    1  UNL1        0.0000
      6 C           5.9595    2.1633   -0.6758 C.ar    1  UNL1        0.0000
      7 S           4.2497    2.3142   -0.7232 S.2     1  UNL1        0.0000
      8 C           3.9694    0.6610   -0.2212 C.ar    1  UNL1        0.0000
      9 C           2.6157    0.1788   -0.0759 C.ar    1  UNL1        0.0000
     10 C           2.1064   -1.0508    0.2974 C.ar    1  UNL1        0.0000
     11 C           0.6858   -0.9789    0.2742 C.ar    1  UNL1        0.0000
     12 C          -0.3477   -1.8800    0.5471 C.ar    1  UNL1        0.0000
     13 C          -1.6972   -1.4539    0.4163 C.ar    1  UNL1        0.0000
     14 C          -2.7263   -2.4033    0.7039 C.ar    1  UNL1        0.0000
     15 N          -2.5392   -3.6808    1.0925 N.ar    1  UNL1        0.0000
     16 S          -4.0314   -4.3552    1.2962 S.2     1  UNL1        0.0000
     17 N          -4.9880   -3.0685    0.9041 N.ar    1  UNL1        0.0000
     18 C          -4.1733   -2.0396    0.5920 C.ar    1  UNL1        0.0000
     19 C          -4.5872   -0.7294    0.1933 C.ar    1  UNL1        0.0000
     20 C          -6.0152   -0.5011    0.1226 C.ar    1  UNL1        0.0000
     21 C          -6.6000    0.7109   -0.2465 C.ar    1  UNL1        0.0000
     22 C          -5.6351    1.6614   -0.5347 C.ar    1  UNL1        0.0000
     23 C          -6.0257    2.9217   -0.9184 C.ar    1  UNL1        0.0000
     24 S          -4.6782    3.9208   -1.2213 S.2     1  UNL1        0.0000
     25 C          -3.5783    2.6539   -0.8351 C.ar    1  UNL1        0.0000
     26 C          -4.1892    1.4723   -0.4760 C.ar    1  UNL1        0.0000
     27 C          -3.5246    0.2318   -0.0980 C.ar    1  UNL1        0.0000
     28 C          -2.0834   -0.1363    0.0153 C.ar    1  UNL1        0.0000
     29 C          -0.9916    0.7310   -0.2472 C.ar    1  UNL1        0.0000
     30 C           0.3433    0.3022   -0.1156 C.ar    1  UNL1        0.0000
     31 N           1.5207    0.9818   -0.3210 N.ar    1  UNL1        0.0000
     32 H           8.6842   -0.2620   -1.2462 H       1  UNL1        0.0000
     33 H           8.6820    0.4667    1.1521 H       1  UNL1        0.0000
     34 H           7.3371   -2.4797    0.7362 H       1  UNL1        0.0000
     35 H           4.8047   -2.0578    0.6056 H       1  UNL1        0.0000
     36 H           6.5989    2.9981   -0.9288 H       1  UNL1        0.0000
     37 H           2.6718   -1.9298    0.5652 H       1  UNL1        0.0000
     38 H          -0.1063   -2.8942    0.8556 H       1  UNL1        0.0000
     39 H          -6.6957   -1.3190    0.3707 H       1  UNL1        0.0000
     40 H          -7.6712    0.8564   -0.2917 H       1  UNL1        0.0000
     41 H          -7.0269    3.3135   -1.0384 H       1  UNL1        0.0000
     42 H          -2.5453    2.9274   -0.9176 H       1  UNL1        0.0000
     43 H          -1.1351    1.7503   -0.5570 H       1  UNL1        0.0000
     44 H           1.5879    1.9460   -0.6141 H       1  UNL1        0.0000
@<TRIPOS>BOND
     1     1     2    1
     2     2     3    2
     3     3     4    1
     4     4     5   ar
     5     5     6   ar
     6     6     7   ar
     7     7     8   ar
     8     8     9    1
     9     9    10   ar
    10    10    11   ar
    11    11    12   ar
    12    12    13   ar
    13    13    14   ar
    14    14    15   ar
    15    15    16   ar
    16    16    17   ar
    17    17    18   ar
    18    18    19   ar
    19    19    20   ar
    20    20    21   ar
    21    21    22   ar
    22    22    23   ar
    23    23    24   ar
    24    24    25   ar
    25    25    26   ar
    26    26    27   ar
    27    27    28   ar
    28    28    29   ar
    29    29    30   ar
    30    30    31   ar
    31     5     1    1
    32    31     9   ar
    33     8     4   ar
    34    30    11   ar
    35    28    13   ar
    36    18    14   ar
    37    27    19   ar
    38    26    22   ar
    39     1    32    1
    40     1    33    1
    41     2    34    1
    42     3    35    1
    43     6    36    1
    44    10    37    1
    45    12    38    1
    46    20    39    1
    47    21    40    1
    48    23    41    1
    49    25    42    1
    50    29    43    1
    51    31    44    1
