@<TRIPOS>MOLECULE
*****
 36 37 0 0 0
SMALL
GASTEIGER

@<TRIPOS>ATOM
      1 C          -3.3247    1.7622    0.4844 C.3     1  UNL1        0.0789
      2 O          -2.5580    1.0373   -0.4764 O.3     1  UNL1       -0.4933
      3 C          -2.8663   -0.2999   -0.4930 C.ar    1  UNL1        0.1412
      4 C          -4.1774   -0.7063   -0.7785 C.ar    1  UNL1       -0.0181
      5 C          -4.4734   -2.0559   -0.9701 C.ar    1  UNL1       -0.0582
      6 C          -3.4562   -3.0036   -0.9102 C.ar    1  UNL1       -0.0598
      7 C          -2.1448   -2.6029   -0.6456 C.ar    1  UNL1       -0.0369
      8 C          -1.8395   -1.2547   -0.4074 C.ar    1  UNL1        0.0758
      9 N          -0.4829   -0.9540   -0.1450 N.am    1  UNL1       -0.2785
     10 C          -0.0277    0.0460    0.6874 C.2     1  UNL1        0.2492
     11 O          -0.6876    0.7215    1.4692 O.2     1  UNL1       -0.2698
     12 C           1.4285    0.3248    0.6377 C.ar    1  UNL1        0.0517
     13 C           1.7795    1.6675    0.4064 C.ar    1  UNL1       -0.0348
     14 C           3.1216    2.0654    0.4049 C.ar    1  UNL1        0.0596
     15 C           3.4347    3.4920    0.1465 C.2     1  UNL1        0.3368
     16 O           2.6266    4.3694   -0.0895 O.2     1  UNL1       -0.2451
     17 O           4.7533    3.7500    0.1933 O.3     1  UNL1       -0.4771
     18 C           4.1222    1.1187    0.6497 C.ar    1  UNL1       -0.0470
     19 C           3.7802   -0.2142    0.8951 C.ar    1  UNL1       -0.0463
     20 C           2.4339   -0.6167    0.8924 C.ar    1  UNL1        0.0709
     21 C           2.1341   -2.0358    1.1482 C.2     1  UNL1        0.3375
     22 O           1.3633   -2.7249    0.5081 O.2     1  UNL1       -0.2451
     23 O           2.8376   -2.5105    2.1882 O.3     1  UNL1       -0.4771
     24 H          -3.4600    1.2014    1.4165 H       1  UNL1        0.0660
     25 H          -4.2951    2.0441    0.0640 H       1  UNL1        0.0660
     26 H          -2.7825    2.6833    0.7191 H       1  UNL1        0.0660
     27 H          -4.9691    0.0276   -0.8948 H       1  UNL1        0.0655
     28 H          -5.4922   -2.3624   -1.1923 H       1  UNL1        0.0619
     29 H          -3.6799   -4.0544   -1.0748 H       1  UNL1        0.0618
     30 H          -1.3657   -3.3604   -0.6001 H       1  UNL1        0.0637
     31 H           0.1765   -1.7010   -0.3539 H       1  UNL1        0.1552
     32 H           0.9934    2.4047    0.2356 H       1  UNL1        0.0633
     33 H           4.8087    4.7123    0.0112 H       1  UNL1        0.2954
     34 H           5.1712    1.4081    0.6578 H       1  UNL1        0.0626
     35 H           4.5704   -0.9374    1.0908 H       1  UNL1        0.0626
     36 H           2.5469   -3.4411    2.2946 H       1  UNL1        0.2954
@<TRIPOS>BOND
     1     1     2    1
     2     2     3    1
     3     3     4   ar
     4     4     5   ar
     5     5     6   ar
     6     6     7   ar
     7     7     8   ar
     8     8     9    1
     9     9    10   am
    10    10    11    2
    11    10    12    1
    12    12    13   ar
    13    13    14   ar
    14    14    15    1
    15    15    16    2
    16    15    17    1
    17    14    18   ar
    18    18    19   ar
    19    19    20   ar
    20    20    21    1
    21    21    22    2
    22    21    23    1
    23     8     3   ar
    24    20    12   ar
    25     1    24    1
    26     1    25    1
    27     1    26    1
    28     4    27    1
    29     5    28    1
    30     6    29    1
    31     7    30    1
    32     9    31    1
    33    13    32    1
    34    17    33    1
    35    18    34    1
    36    19    35    1
    37    23    36    1
