@<TRIPOS>MOLECULE
*****
 42 44 0 0 0
SMALL
GASTEIGER

@<TRIPOS>ATOM
      1 C           0.8950   -1.5918   -2.6389 C.3     1  UNL1        0.0789
      2 O           0.9566   -1.1894   -1.2758 O.3     1  UNL1       -0.4933
      3 C           2.1673   -1.3352   -0.6369 C.ar    1  UNL1        0.1412
      4 C           3.2995   -1.9345   -1.1970 C.ar    1  UNL1       -0.0181
      5 C           4.4819   -2.0229   -0.4598 C.ar    1  UNL1       -0.0582
      6 C           4.5374   -1.5162    0.8358 C.ar    1  UNL1       -0.0598
      7 C           3.4110   -0.9187    1.4051 C.ar    1  UNL1       -0.0369
      8 C           2.2225   -0.8249    0.6788 C.ar    1  UNL1        0.0756
      9 N           1.0425   -0.2397    1.1843 N.am    1  UNL1       -0.2813
     10 C           0.8403    0.4001    2.3871 C.2     1  UNL1        0.2351
     11 O           1.6902    0.5806    3.2576 O.2     1  UNL1       -0.2737
     12 C          -0.5852    0.9375    2.5916 C.3     1  UNL1        0.0966
     13 N          -1.5233    0.7203    1.4857 N.am    1  UNL1       -0.2563
     14 C          -2.3991   -0.3535    1.5703 C.2     1  UNL1        0.2608
     15 O          -2.4020   -1.1478    2.5117 O.2     1  UNL1       -0.2712
     16 C          -3.3173   -0.5598    0.3616 C.3     1  UNL1        0.1732
     17 C          -2.7469   -1.6636   -0.5252 C.3     1  UNL1       -0.0190
     18 O          -3.6359    0.5579   -0.4505 O.3     1  UNL1       -0.4780
     19 C          -2.6530    1.5039   -0.5295 C.ar    1  UNL1        0.1429
     20 C          -2.7802    2.4010   -1.5935 C.ar    1  UNL1       -0.0180
     21 C          -1.8460    3.4176   -1.7691 C.ar    1  UNL1       -0.0582
     22 C          -0.7888    3.5414   -0.8739 C.ar    1  UNL1       -0.0598
     23 C          -0.6696    2.6546    0.2014 C.ar    1  UNL1       -0.0367
     24 C          -1.6040    1.6253    0.3911 C.ar    1  UNL1        0.0787
     25 H           1.6114   -1.0333   -3.2504 H       1  UNL1        0.0660
     26 H           1.0448   -2.6719   -2.7365 H       1  UNL1        0.0660
     27 H          -0.1081   -1.3606   -3.0100 H       1  UNL1        0.0660
     28 H           3.2966   -2.3446   -2.2009 H       1  UNL1        0.0655
     29 H           5.3614   -2.4900   -0.8963 H       1  UNL1        0.0619
     30 H           5.4575   -1.5873    1.4108 H       1  UNL1        0.0618
     31 H           3.4905   -0.5434    2.4202 H       1  UNL1        0.0637
     32 H           0.2582   -0.2794    0.5405 H       1  UNL1        0.1550
     33 H          -0.5313    2.0077    2.8196 H       1  UNL1        0.0564
     34 H          -0.9701    0.4504    3.4953 H       1  UNL1        0.0564
     35 H          -4.2739   -0.9069    0.7717 H       1  UNL1        0.0829
     36 H          -1.8049   -1.3494   -0.9851 H       1  UNL1        0.0270
     37 H          -2.5562   -2.5787    0.0443 H       1  UNL1        0.0270
     38 H          -3.4377   -1.8952   -1.3429 H       1  UNL1        0.0270
     39 H          -3.6108    2.3025   -2.2881 H       1  UNL1        0.0655
     40 H          -1.9439    4.1112   -2.6004 H       1  UNL1        0.0619
     41 H          -0.0539    4.3321   -1.0077 H       1  UNL1        0.0618
     42 H           0.1776    2.7947    0.8664 H       1  UNL1        0.0637
@<TRIPOS>BOND
     1     1     2    1
     2     2     3    1
     3     3     4   ar
     4     4     5   ar
     5     5     6   ar
     6     6     7   ar
     7     7     8   ar
     8     8     9    1
     9     9    10   am
    10    10    11    2
    11    10    12    1
    12    12    13    1
    13    13    14   am
    14    14    15    2
    15    14    16    1
    16    16    17    1
    17    16    18    1
    18    18    19    1
    19    19    20   ar
    20    20    21   ar
    21    21    22   ar
    22    22    23   ar
    23    23    24   ar
    24     8     3   ar
    25    24    13    1
    26    24    19   ar
    27     1    25    1
    28     1    26    1
    29     1    27    1
    30     4    28    1
    31     5    29    1
    32     6    30    1
    33     7    31    1
    34     9    32    1
    35    12    33    1
    36    12    34    1
    37    16    35    1
    38    17    36    1
    39    17    37    1
    40    17    38    1
    41    20    39    1
    42    21    40    1
    43    22    41    1
    44    23    42    1
