@<TRIPOS>MOLECULE
*****
 42 44 0 0 0
SMALL
GASTEIGER

@<TRIPOS>ATOM
      1 C          -5.1125    2.4551   -1.6467 C.3     1  UNL1        0.0789
      2 O          -4.5793    1.3467   -0.9315 O.3     1  UNL1       -0.4933
      3 C          -5.4053    0.7433   -0.0096 C.ar    1  UNL1        0.1412
      4 C          -6.7224    1.1284    0.2580 C.ar    1  UNL1       -0.0181
      5 C          -7.4711    0.4421    1.2160 C.ar    1  UNL1       -0.0582
      6 C          -6.9094   -0.6280    1.9076 C.ar    1  UNL1       -0.0598
      7 C          -5.5947   -1.0203    1.6474 C.ar    1  UNL1       -0.0369
      8 C          -4.8353   -0.3417    0.6927 C.ar    1  UNL1        0.0756
      9 N          -3.5018   -0.6773    0.3698 N.am    1  UNL1       -0.2819
     10 C          -2.7028   -1.6590    0.9255 C.2     1  UNL1        0.2276
     11 O          -3.0167   -2.4269    1.8311 O.2     1  UNL1       -0.2746
     12 C          -1.3245   -1.7239    0.2916 C.3     1  UNL1        0.0794
     13 S          -0.2638   -0.4503    1.0288 S.3     1  UNL1       -0.0563
     14 C           1.2081   -0.7494    0.1616 C.ar    1  UNL1        0.2780
     15 N           1.3260   -1.5613   -0.8688 N.ar    1  UNL1       -0.1006
     16 N           2.6452   -1.5042   -1.2678 N.ar    1  UNL1       -0.1065
     17 C           3.2451   -0.6592   -0.4530 C.ar    1  UNL1        0.2492
     18 C           4.6342   -0.2209   -0.4124 C.ar    1  UNL1        0.0385
     19 C           5.5440   -0.7085   -1.3618 C.ar    1  UNL1       -0.0492
     20 C           6.8829   -0.3052   -1.3466 C.ar    1  UNL1       -0.0581
     21 C           7.3427    0.5869   -0.3730 C.ar    1  UNL1       -0.0504
     22 C           8.7707    1.0463   -0.3714 C.3     1  UNL1       -0.0397
     23 C           6.4383    1.0880    0.5692 C.ar    1  UNL1       -0.0581
     24 C           5.0989    0.6847    0.5525 C.ar    1  UNL1       -0.0492
     25 O           2.3894   -0.1357    0.4804 O.2     1  UNL1       -0.4110
     26 H          -5.3729    3.2745   -0.9687 H       1  UNL1        0.0660
     27 H          -4.3344    2.8195   -2.3244 H       1  UNL1        0.0660
     28 H          -5.9706    2.1551   -2.2569 H       1  UNL1        0.0660
     29 H          -7.1969    1.9556   -0.2584 H       1  UNL1        0.0655
     30 H          -8.4953    0.7426    1.4236 H       1  UNL1        0.0619
     31 H          -7.4927   -1.1621    2.6538 H       1  UNL1        0.0618
     32 H          -5.1924   -1.8590    2.2065 H       1  UNL1        0.0637
     33 H          -3.0964   -0.0706   -0.3375 H       1  UNL1        0.1549
     34 H          -1.4130   -1.5777   -0.7904 H       1  UNL1        0.0476
     35 H          -0.9067   -2.7206    0.4686 H       1  UNL1        0.0476
     36 H           5.2139   -1.4095   -2.1274 H       1  UNL1        0.0625
     37 H           7.5629   -0.6958   -2.1009 H       1  UNL1        0.0620
     38 H           9.1283    1.1969    0.6526 H       1  UNL1        0.0278
     39 H           8.8616    1.9876   -0.9225 H       1  UNL1        0.0278
     40 H           9.4242    0.3012   -0.8376 H       1  UNL1        0.0278
     41 H           6.7703    1.7963    1.3256 H       1  UNL1        0.0620
     42 H           4.4242    1.0896    1.3042 H       1  UNL1        0.0625
@<TRIPOS>BOND
     1     1     2    1
     2     2     3    1
     3     3     4   ar
     4     4     5   ar
     5     5     6   ar
     6     6     7   ar
     7     7     8   ar
     8     8     9    1
     9     9    10   am
    10    10    11    2
    11    10    12    1
    12    12    13    1
    13    13    14    1
    14    14    15   ar
    15    15    16   ar
    16    16    17   ar
    17    17    18    1
    18    18    19   ar
    19    19    20   ar
    20    20    21   ar
    21    21    22    1
    22    21    23   ar
    23    23    24   ar
    24    17    25   ar
    25     8     3   ar
    26    25    14   ar
    27    24    18   ar
    28     1    26    1
    29     1    27    1
    30     1    28    1
    31     4    29    1
    32     5    30    1
    33     6    31    1
    34     7    32    1
    35     9    33    1
    36    12    34    1
    37    12    35    1
    38    19    36    1
    39    20    37    1
    40    22    38    1
    41    22    39    1
    42    22    40    1
    43    23    41    1
    44    24    42    1
