@<TRIPOS>MOLECULE
*****
 34 35 0 0 0
SMALL
GASTEIGER

@<TRIPOS>ATOM
      1 C          -4.0404   -2.2364    0.1501 C.3     1  UNL1        0.0789
      2 O          -2.9320   -1.3544    0.0176 O.3     1  UNL1       -0.4933
      3 C          -3.2149   -0.0090   -0.0736 C.ar    1  UNL1        0.1412
      4 C          -4.5019    0.5380   -0.0926 C.ar    1  UNL1       -0.0181
      5 C          -4.6741    1.9201   -0.1918 C.ar    1  UNL1       -0.0582
      6 C          -3.5655    2.7583   -0.2754 C.ar    1  UNL1       -0.0598
      7 C          -2.2766    2.2217   -0.2586 C.ar    1  UNL1       -0.0369
      8 C          -2.0903    0.8420   -0.1531 C.ar    1  UNL1        0.0768
      9 N          -0.8201    0.2225   -0.1388 N.am    1  UNL1       -0.2661
     10 C           0.4298    0.8206   -0.0503 C.2     1  UNL1        0.3093
     11 O           0.6123    2.0201    0.1040 O.2     1  UNL1       -0.2521
     12 N           1.4157   -0.1440   -0.1814 N.am    1  UNL1       -0.2537
     13 C           2.7975    0.0633   -0.0359 C.ar    1  UNL1        0.1290
     14 N           3.2417    1.2424    0.4387 N.ar    1  UNL1       -0.2398
     15 C           4.5693    1.4232    0.5845 C.ar    1  UNL1        0.0297
     16 C           5.5088    0.4596    0.2833 C.ar    1  UNL1       -0.0432
     17 C           5.0531   -0.7607   -0.1958 C.ar    1  UNL1       -0.0541
     18 C           3.6774   -0.9811   -0.3627 C.ar    1  UNL1       -0.0103
     19 C           3.2121   -2.3100   -0.8829 C.3     1  UNL1       -0.0365
     20 H          -3.6477   -3.2545    0.2329 H       1  UNL1        0.0660
     21 H          -4.6818   -2.1993   -0.7365 H       1  UNL1        0.0660
     22 H          -4.6082   -2.0244    1.0620 H       1  UNL1        0.0660
     23 H          -5.3913   -0.0793   -0.0332 H       1  UNL1        0.0655
     24 H          -5.6749    2.3444   -0.2054 H       1  UNL1        0.0619
     25 H          -3.6982    3.8346   -0.3548 H       1  UNL1        0.0618
     26 H          -1.4365    2.9053   -0.3336 H       1  UNL1        0.0637
     27 H          -0.8688   -0.7802   -0.0226 H       1  UNL1        0.1565
     28 H           1.1175   -1.0305   -0.5431 H       1  UNL1        0.1578
     29 H           4.8608    2.3982    0.9637 H       1  UNL1        0.0830
     30 H           6.5664    0.6536    0.4187 H       1  UNL1        0.0633
     31 H           5.7740   -1.5375   -0.4389 H       1  UNL1        0.0622
     32 H           2.5632   -2.8003   -0.1500 H       1  UNL1        0.0279
     33 H           4.0530   -2.9844   -1.0777 H       1  UNL1        0.0279
     34 H           2.6705   -2.1818   -1.8256 H       1  UNL1        0.0279
@<TRIPOS>BOND
     1     1     2    1
     2     2     3    1
     3     3     4   ar
     4     4     5   ar
     5     5     6   ar
     6     6     7   ar
     7     7     8   ar
     8     8     9    1
     9     9    10   am
    10    10    11    2
    11    10    12   am
    12    12    13    1
    13    13    14   ar
    14    14    15   ar
    15    15    16   ar
    16    16    17   ar
    17    17    18   ar
    18    18    19    1
    19     8     3   ar
    20    18    13   ar
    21     1    20    1
    22     1    21    1
    23     1    22    1
    24     4    23    1
    25     5    24    1
    26     6    25    1
    27     7    26    1
    28     9    27    1
    29    12    28    1
    30    15    29    1
    31    16    30    1
    32    17    31    1
    33    19    32    1
    34    19    33    1
    35    19    34    1
