@<TRIPOS>MOLECULE
*****
 38 39 0 0 0
SMALL
GASTEIGER

@<TRIPOS>ATOM
      1 C          -4.7383    0.1902    2.4582 C.3     1  UNL1        0.0789
      2 O          -4.2546   -0.6893    1.4438 O.3     1  UNL1       -0.4932
      3 C          -3.8097   -0.0229    0.3286 C.ar    1  UNL1        0.1423
      4 C          -4.5637    0.9549   -0.3214 C.ar    1  UNL1       -0.0181
      5 C          -4.0570    1.5731   -1.4672 C.ar    1  UNL1       -0.0582
      6 C          -2.8062    1.2085   -1.9692 C.ar    1  UNL1       -0.0597
      7 C          -2.0576    0.2182   -1.3320 C.ar    1  UNL1       -0.0358
      8 C          -2.5664   -0.4067   -0.1945 C.ar    1  UNL1        0.0896
      9 N          -1.7792   -1.3781    0.5014 N.pl3   1  UNL1       -0.2127
     10 S          -0.6656   -0.7738    1.6318 S.O2    1  UNL1        0.0725
     11 O          -0.3335   -1.8832    2.5021 O.2     1  UNL1       -0.1500
     12 O          -1.1424    0.4814    2.1728 O.2     1  UNL1       -0.1500
     13 C           0.7609   -0.4597    0.6220 C.ar    1  UNL1        0.1085
     14 C           1.1355    0.8544    0.3321 C.ar    1  UNL1       -0.0345
     15 C           2.2633    1.0887   -0.4579 C.ar    1  UNL1       -0.0527
     16 C           3.0251    0.0171   -0.9417 C.ar    1  UNL1       -0.0247
     17 C           4.1947    0.2422   -1.7943 C.2     1  UNL1       -0.0478
     18 C           5.3493    0.8343   -1.4515 C.2     1  UNL1        0.0229
     19 C           5.6981    1.3684   -0.1243 C.2     1  UNL1        0.3296
     20 O           5.0419    1.3741    0.8962 O.2     1  UNL1       -0.2458
     21 O           6.9338    1.8970   -0.1684 O.3     1  UNL1       -0.4775
     22 C           2.6400   -1.2959   -0.6407 C.ar    1  UNL1       -0.0527
     23 C           1.5124   -1.5379    0.1468 C.ar    1  UNL1       -0.0345
     24 H          -5.7657    0.4987    2.2415 H       1  UNL1        0.0660
     25 H          -4.7469   -0.3632    3.4021 H       1  UNL1        0.0660
     26 H          -4.0899    1.0644    2.5869 H       1  UNL1        0.0660
     27 H          -5.5472    1.2361    0.0412 H       1  UNL1        0.0655
     28 H          -4.6417    2.3379   -1.9731 H       1  UNL1        0.0619
     29 H          -2.4165    1.6931   -2.8611 H       1  UNL1        0.0618
     30 H          -1.0911   -0.0680   -1.7358 H       1  UNL1        0.0638
     31 H          -2.3410   -2.0943    0.9675 H       1  UNL1        0.1738
     32 H           0.5621    1.6958    0.7146 H       1  UNL1        0.0637
     33 H           2.5519    2.1139   -0.6788 H       1  UNL1        0.0624
     34 H           4.0874   -0.1374   -2.8086 H       1  UNL1        0.0626
     35 H           6.1317    0.9266   -2.1987 H       1  UNL1        0.0689
     36 H           7.0756    2.2145    0.7482 H       1  UNL1        0.2954
     37 H           3.2223   -2.1388   -1.0066 H       1  UNL1        0.0624
     38 H           1.2281   -2.5596    0.3879 H       1  UNL1        0.0637
@<TRIPOS>BOND
     1     1     2    1
     2     2     3    1
     3     3     4   ar
     4     4     5   ar
     5     5     6   ar
     6     6     7   ar
     7     7     8   ar
     8     8     9    1
     9     9    10    1
    10    10    11    2
    11    10    12    2
    12    10    13    1
    13    13    14   ar
    14    14    15   ar
    15    15    16   ar
    16    16    17    1
    17    17    18    2
    18    18    19    1
    19    19    20    2
    20    19    21    1
    21    16    22   ar
    22    22    23   ar
    23     8     3   ar
    24    23    13   ar
    25     1    24    1
    26     1    25    1
    27     1    26    1
    28     4    27    1
    29     5    28    1
    30     6    29    1
    31     7    30    1
    32     9    31    1
    33    14    32    1
    34    15    33    1
    35    17    34    1
    36    18    35    1
    37    21    36    1
    38    22    37    1
    39    23    38    1
