@<TRIPOS>MOLECULE
*****
 38 41 0 0 0
SMALL
GASTEIGER

@<TRIPOS>ATOM
      1 C          -5.4349   -1.3335   -0.1056 C.3     1  UNL1        0.0788
      2 O          -4.0944   -0.8740   -0.0233 O.3     1  UNL1       -0.4939
      3 C          -3.8480    0.0033    0.9871 C.ar    1  UNL1        0.1354
      4 C          -4.7322    0.4284    2.0272 C.ar    1  UNL1       -0.0123
      5 C          -4.1315    1.3192    2.8894 C.ar    1  UNL1       -0.0202
      6 S          -2.5127    1.6421    2.4526 S.2     1  UNL1       -0.0923
      7 C          -2.5983    0.5882    1.1011 C.ar    1  UNL1        0.0710
      8 C          -1.4625    0.4140    0.2318 C.ar    1  UNL1        0.0716
      9 S          -0.0483   -0.3755    0.7890 S.2     1  UNL1       -0.0833
     10 C           0.7390   -0.2021   -0.7190 C.ar    1  UNL1        0.0308
     11 C           2.0648   -0.7142   -0.9369 C.ar    1  UNL1        0.0389
     12 S           2.4256   -1.6876   -2.3322 S.2     1  UNL1       -0.0946
     13 C           4.0723   -1.9186   -1.8719 C.ar    1  UNL1       -0.0108
     14 C           4.3157   -1.2574   -0.7046 C.ar    1  UNL1        0.0570
     15 C           3.1998   -0.5757   -0.1827 C.ar    1  UNL1        0.0646
     16 C           3.6135    0.0983    1.0239 C.2     1  UNL1        0.2547
     17 O           2.9476    0.8442    1.7209 O.2     1  UNL1       -0.2695
     18 N           4.9458   -0.2551    1.1862 N.am    1  UNL1       -0.2372
     19 C           5.7591    0.2479    2.2623 C.3     1  UNL1        0.0115
     20 C           5.4420   -1.0456    0.1650 C.2     1  UNL1        0.2541
     21 O           6.5730   -1.4678   -0.0004 O.2     1  UNL1       -0.2695
     22 C          -0.0737    0.4351   -1.6376 C.ar    1  UNL1       -0.0040
     23 C          -1.3451    0.7950   -1.0922 C.ar    1  UNL1        0.1360
     24 O          -2.3728    1.4438   -1.7039 O.3     1  UNL1       -0.4939
     25 C          -2.1833    1.7020   -3.0868 C.3     1  UNL1        0.0788
     26 H          -5.7074   -1.9173    0.7800 H       1  UNL1        0.0660
     27 H          -6.1317   -0.5021   -0.2575 H       1  UNL1        0.0660
     28 H          -5.5103   -1.9938   -0.9750 H       1  UNL1        0.0660
     29 H          -5.7570    0.1065    2.1544 H       1  UNL1        0.0660
     30 H          -4.5649    1.7967    3.7572 H       1  UNL1        0.0695
     31 H           4.7485   -2.5084   -2.4765 H       1  UNL1        0.0701
     32 H           6.1072    1.2489    1.9908 H       1  UNL1        0.0434
     33 H           6.6240   -0.4007    2.4248 H       1  UNL1        0.0434
     34 H           5.1645    0.3189    3.1774 H       1  UNL1        0.0434
     35 H           0.2446    0.6361   -2.6521 H       1  UNL1        0.0666
     36 H          -3.0880    2.1881   -3.4643 H       1  UNL1        0.0660
     37 H          -2.0452    0.7723   -3.6494 H       1  UNL1        0.0660
     38 H          -1.3447    2.3874   -3.2492 H       1  UNL1        0.0660
@<TRIPOS>BOND
     1     1     2    1
     2     2     3    1
     3     3     4   ar
     4     4     5   ar
     5     5     6   ar
     6     6     7   ar
     7     7     8    1
     8     8     9   ar
     9     9    10   ar
    10    10    11    1
    11    11    12   ar
    12    12    13   ar
    13    13    14   ar
    14    14    15   ar
    15    15    16    1
    16    16    17    2
    17    16    18   am
    18    18    19    1
    19    18    20   am
    20    20    21    2
    21    10    22   ar
    22    22    23   ar
    23    23    24    1
    24    24    25    1
    25     7     3   ar
    26    23     8   ar
    27    15    11   ar
    28    20    14    1
    29     1    26    1
    30     1    27    1
    31     1    28    1
    32     4    29    1
    33     5    30    1
    34    13    31    1
    35    19    32    1
    36    19    33    1
    37    19    34    1
    38    22    35    1
    39    25    36    1
    40    25    37    1
    41    25    38    1
