@<TRIPOS>MOLECULE
*****
 41 45 0 0 0
SMALL
GASTEIGER

@<TRIPOS>ATOM
      1 C           6.5565    0.7751   -0.9382 C.3     1  UNL1        0.0788
      2 O           5.3702    0.2443   -0.3616 O.3     1  UNL1       -0.4943
      3 C           4.2363    0.9448   -0.6146 C.ar    1  UNL1        0.1317
      4 C           4.1135    2.1206   -1.3425 C.ar    1  UNL1        0.0183
      5 S           2.4749    2.6913   -1.4247 S.2     1  UNL1       -0.0921
      6 C           1.9684    1.3966   -0.5126 C.ar    1  UNL1        0.0338
      7 C           2.9766    0.5300   -0.1335 C.ar    1  UNL1        0.0195
      8 C           2.4353   -0.6377    0.7023 C.3     1  UNL1        0.0207
      9 C           3.0173   -0.6422    2.1172 C.3     1  UNL1       -0.0516
     10 C           2.6524   -1.9827    0.0059 C.3     1  UNL1       -0.0516
     11 C           0.9502   -0.2388    0.7051 C.ar    1  UNL1       -0.0214
     12 C          -0.2532   -0.7507    1.2424 C.ar    1  UNL1       -0.0418
     13 C          -1.3357    0.0568    0.9022 C.ar    1  UNL1        0.0275
     14 C          -2.7108   -0.1310    1.2783 C.ar    1  UNL1        0.0388
     15 S          -3.1445   -0.4737    2.9266 S.2     1  UNL1       -0.0946
     16 C          -4.8343   -0.5158    2.5800 C.ar    1  UNL1       -0.0108
     17 C          -5.0320   -0.2895    1.2501 C.ar    1  UNL1        0.0570
     18 C          -3.8481   -0.0817    0.5168 C.ar    1  UNL1        0.0646
     19 C          -4.2086    0.1107   -0.8665 C.2     1  UNL1        0.2547
     20 O          -3.4573    0.2564   -1.8153 O.2     1  UNL1       -0.2695
     21 N          -5.5952    0.0507   -0.8814 N.am    1  UNL1       -0.2372
     22 C          -6.3617    0.1618   -2.0949 C.3     1  UNL1        0.0115
     23 C          -6.1560   -0.2142    0.3552 C.2     1  UNL1        0.2541
     24 O          -7.3275   -0.3703    0.6514 O.2     1  UNL1       -0.2695
     25 S          -0.8486    1.4293   -0.0429 S.2     1  UNL1       -0.0869
     26 C           0.7346    0.9279   -0.0018 C.ar    1  UNL1        0.0309
     27 H           7.3858    0.1168   -0.6616 H       1  UNL1        0.0660
     28 H           6.7773    1.7729   -0.5433 H       1  UNL1        0.0660
     29 H           6.4932    0.7893   -2.0319 H       1  UNL1        0.0660
     30 H           4.8776    2.6981   -1.8411 H       1  UNL1        0.0730
     31 H           2.8678    0.3208    2.6203 H       1  UNL1        0.0241
     32 H           2.5430   -1.4118    2.7369 H       1  UNL1        0.0241
     33 H           4.0951   -0.8396    2.1018 H       1  UNL1        0.0241
     34 H           2.2395   -1.9839   -1.0102 H       1  UNL1        0.0241
     35 H           2.1670   -2.7961    0.5571 H       1  UNL1        0.0241
     36 H           3.7193   -2.2200   -0.0742 H       1  UNL1        0.0241
     37 H          -0.3360   -1.6536    1.8351 H       1  UNL1        0.0632
     38 H          -5.5636   -0.7065    3.3562 H       1  UNL1        0.0701
     39 H          -5.9802    0.9950   -2.6925 H       1  UNL1        0.0434
     40 H          -6.2372   -0.7620   -2.6681 H       1  UNL1        0.0434
     41 H          -7.4214    0.3126   -1.8738 H       1  UNL1        0.0434
@<TRIPOS>BOND
     1     1     2    1
     2     2     3    1
     3     3     4   ar
     4     4     5   ar
     5     5     6   ar
     6     6     7   ar
     7     7     8    1
     8     8     9    1
     9     8    10    1
    10     8    11    1
    11    11    12   ar
    12    12    13   ar
    13    13    14    1
    14    14    15   ar
    15    15    16   ar
    16    16    17   ar
    17    17    18   ar
    18    18    19    1
    19    19    20    2
    20    19    21   am
    21    21    22    1
    22    21    23   am
    23    23    24    2
    24    13    25   ar
    25    25    26   ar
    26     7     3   ar
    27    26    11   ar
    28    26     6    1
    29    18    14   ar
    30    23    17    1
    31     1    27    1
    32     1    28    1
    33     1    29    1
    34     4    30    1
    35     9    31    1
    36     9    32    1
    37     9    33    1
    38    10    34    1
    39    10    35    1
    40    10    36    1
    41    12    37    1
    42    16    38    1
    43    22    39    1
    44    22    40    1
    45    22    41    1
