@<TRIPOS>MOLECULE
*****
 30 32 0 0 0
SMALL
GASTEIGER

@<TRIPOS>ATOM
      1 C          -5.0438    1.0783    0.8805 C.3     1  UNL1        0.0369
      2 O          -3.7297    0.5368    0.8480 O.3     1  UNL1       -0.3784
      3 C          -3.2461    0.4050   -0.4854 C.3     1  UNL1        0.0738
      4 C          -1.8000   -0.0110   -0.4137 C.ar    1  UNL1        0.0040
      5 C          -1.4096   -1.2298   -0.8362 C.ar    1  UNL1        0.0100
      6 C           0.0123   -1.6687   -0.7519 C.ar    1  UNL1        0.2577
      7 O           0.3075   -2.7974   -1.1312 O.2     1  UNL1       -0.2673
      8 N           0.8621   -0.7204   -0.2324 N.ar    1  UNL1       -0.2599
      9 C           0.4809    0.5600    0.1857 C.ar    1  UNL1        0.1371
     10 N           1.5961    1.2618    0.6370 N.ar    1  UNL1       -0.3383
     11 C           2.6647    0.3456    0.6253 C.ar    1  UNL1        0.0650
     12 C           3.9763    0.5370    0.9952 C.ar    1  UNL1       -0.0363
     13 C           4.8629   -0.5288    0.8020 C.ar    1  UNL1       -0.0597
     14 C           4.4298   -1.7447    0.2319 C.ar    1  UNL1       -0.0597
     15 C           3.1006   -1.9240   -0.1636 C.ar    1  UNL1       -0.0357
     16 C           2.2406   -0.8654    0.0330 C.ar    1  UNL1        0.0747
     17 C          -0.8111    0.9331    0.1222 C.ar    1  UNL1        0.0982
     18 C          -1.1957    2.2403    0.5451 C.1     1  UNL1        0.1031
     19 N          -1.4911    3.3133    0.8759 N.1     1  UNL1       -0.1907
     20 H          -5.7382    0.4315    0.3356 H       1  UNL1        0.0524
     21 H          -5.3658    1.1378    1.9236 H       1  UNL1        0.0524
     22 H          -5.0527    2.0860    0.4542 H       1  UNL1        0.0524
     23 H          -3.8511   -0.3462   -1.0076 H       1  UNL1        0.0610
     24 H          -3.3456    1.3515   -1.0312 H       1  UNL1        0.0610
     25 H          -2.0979   -1.9660   -1.2350 H       1  UNL1        0.0676
     26 H           1.5051    1.9368    1.3838 H       1  UNL1        0.1674
     27 H           4.3178    1.4768    1.4129 H       1  UNL1        0.0639
     28 H           5.9070   -0.4172    1.0876 H       1  UNL1        0.0618
     29 H           5.1436   -2.5543    0.0927 H       1  UNL1        0.0618
     30 H           2.7710   -2.8574   -0.6054 H       1  UNL1        0.0639
@<TRIPOS>BOND
     1     1     2    1
     2     2     3    1
     3     3     4    1
     4     4     5   ar
     5     5     6   ar
     6     6     7    2
     7     6     8   ar
     8     8     9   ar
     9     9    10   ar
    10    10    11   ar
    11    11    12   ar
    12    12    13   ar
    13    13    14   ar
    14    14    15   ar
    15    15    16   ar
    16     9    17   ar
    17    17    18    1
    18    18    19    3
    19    17     4   ar
    20    16     8   ar
    21    16    11   ar
    22     1    20    1
    23     1    21    1
    24     1    22    1
    25     3    23    1
    26     3    24    1
    27     5    25    1
    28    10    26    1
    29    12    27    1
    30    13    28    1
    31    14    29    1
    32    15    30    1
