@<TRIPOS>MOLECULE
*****
 35 36 0 0 0
SMALL
GASTEIGER

@<TRIPOS>ATOM
      1 C           4.5965   -1.0623   -1.8672 C.3     1  UNL1        0.0369
      2 O           3.4486   -0.3307   -1.4591 O.3     1  UNL1       -0.3784
      3 C           3.2731   -0.3723   -0.0479 C.3     1  UNL1        0.0737
      4 C           1.9324    0.2464    0.2663 C.ar    1  UNL1        0.0004
      5 C           1.8940    1.5243    0.8249 C.ar    1  UNL1       -0.0339
      6 C           0.6644    2.0841    1.1081 C.ar    1  UNL1        0.0408
      7 C           0.5731    3.4526    1.7121 C.3     1  UNL1       -0.0223
      8 N          -0.4965    1.4421    0.8518 N.ar    1  UNL1       -0.2359
      9 C          -0.5090    0.2079    0.2776 C.ar    1  UNL1        0.1395
     10 N          -1.7832   -0.2723    0.0135 N.pl3   1  UNL1       -0.3098
     11 C          -2.0828   -1.4337   -0.8358 C.3     1  UNL1        0.0370
     12 C          -3.5562   -1.4151   -1.2776 C.3     1  UNL1        0.0634
     13 O          -4.4452   -1.3363   -0.1546 O.3     1  UNL1       -0.3767
     14 C          -4.1945   -0.1256    0.5740 C.3     1  UNL1        0.0634
     15 C          -2.7569   -0.0763    1.1114 C.3     1  UNL1        0.0370
     16 C           0.7136   -0.4200   -0.0195 C.ar    1  UNL1        0.0969
     17 C           0.7897   -1.7507   -0.5463 C.1     1  UNL1        0.1030
     18 N           0.8807   -2.8384   -0.9459 N.1     1  UNL1       -0.1907
     19 H           4.4871   -2.1203   -1.6101 H       1  UNL1        0.0524
     20 H           5.4979   -0.6519   -1.4019 H       1  UNL1        0.0524
     21 H           4.6923   -0.9754   -2.9528 H       1  UNL1        0.0524
     22 H           3.3170   -1.4009    0.3301 H       1  UNL1        0.0610
     23 H           4.0843    0.1883    0.4323 H       1  UNL1        0.0610
     24 H           2.8068    2.0744    1.0325 H       1  UNL1        0.0639
     25 H          -0.4710    3.7356    1.8805 H       1  UNL1        0.0292
     26 H           1.0916    3.4763    2.6757 H       1  UNL1        0.0292
     27 H           1.0232    4.1922    1.0427 H       1  UNL1        0.0292
     28 H          -1.4767   -1.4236   -1.7473 H       1  UNL1        0.0487
     29 H          -1.8963   -2.3539   -0.2704 H       1  UNL1        0.0487
     30 H          -3.7901   -2.3350   -1.8230 H       1  UNL1        0.0575
     31 H          -3.7538   -0.5712   -1.9497 H       1  UNL1        0.0575
     32 H          -4.4008    0.7331   -0.0763 H       1  UNL1        0.0575
     33 H          -4.9029   -0.0886    1.4077 H       1  UNL1        0.0575
     34 H          -2.6349    0.8784    1.6346 H       1  UNL1        0.0487
     35 H          -2.6154   -0.8813    1.8437 H       1  UNL1        0.0487
@<TRIPOS>BOND
     1     1     2    1
     2     2     3    1
     3     3     4    1
     4     4     5   ar
     5     5     6   ar
     6     6     7    1
     7     6     8   ar
     8     8     9   ar
     9     9    10    1
    10    10    11    1
    11    11    12    1
    12    12    13    1
    13    13    14    1
    14    14    15    1
    15     9    16   ar
    16    16    17    1
    17    17    18    3
    18    16     4   ar
    19    15    10    1
    20     1    19    1
    21     1    20    1
    22     1    21    1
    23     3    22    1
    24     3    23    1
    25     5    24    1
    26     7    25    1
    27     7    26    1
    28     7    27    1
    29    11    28    1
    30    11    29    1
    31    12    30    1
    32    12    31    1
    33    14    32    1
    34    14    33    1
    35    15    34    1
    36    15    35    1
