@<TRIPOS>MOLECULE
*****
 40 41 0 0 0
SMALL
GASTEIGER

@<TRIPOS>ATOM
      1 C          -5.0649    0.4254    1.6076 C.3     1  UNL1        0.0369
      2 O          -4.6944    1.1051    0.4158 O.3     1  UNL1       -0.3784
      3 C          -4.3166    0.2277   -0.6400 C.3     1  UNL1        0.0737
      4 C          -2.8806   -0.2115   -0.4911 C.ar    1  UNL1        0.0004
      5 C          -2.5986   -1.5559   -0.2283 C.ar    1  UNL1       -0.0339
      6 C          -1.2780   -1.9491   -0.0728 C.ar    1  UNL1        0.0407
      7 C          -0.9435   -3.3809    0.2193 C.3     1  UNL1       -0.0223
      8 N          -0.2466   -1.0813   -0.1686 N.ar    1  UNL1       -0.2361
      9 C          -0.4934    0.2239   -0.4271 C.ar    1  UNL1        0.1371
     10 N           0.5933    1.1172   -0.4868 N.pl3   1  UNL1       -0.3252
     11 C           1.9362    0.5563   -0.2910 C.3     1  UNL1        0.0220
     12 C           2.2283    0.3497    1.2000 C.3     1  UNL1       -0.0345
     13 C           3.6014   -0.2895    1.4237 C.3     1  UNL1       -0.0514
     14 C           4.6212    0.0593    0.3390 C.3     1  UNL1       -0.0529
     15 C           4.3597    1.4346   -0.2572 C.3     1  UNL1       -0.0514
     16 C           2.9703    1.5325   -0.8939 C.3     1  UNL1       -0.0345
     17 C          -1.8065    0.6948   -0.5889 C.ar    1  UNL1        0.0967
     18 C          -2.0388    2.0821   -0.8737 C.1     1  UNL1        0.1029
     19 N          -2.2125    3.1932   -1.1649 N.1     1  UNL1       -0.1907
     20 H          -5.9124   -0.2415    1.4220 H       1  UNL1        0.0524
     21 H          -5.3674    1.1721    2.3468 H       1  UNL1        0.0524
     22 H          -4.2216   -0.1398    2.0144 H       1  UNL1        0.0524
     23 H          -4.4286    0.7687   -1.5868 H       1  UNL1        0.0610
     24 H          -5.0041   -0.6255   -0.6946 H       1  UNL1        0.0610
     25 H          -3.3968   -2.2872   -0.1374 H       1  UNL1        0.0639
     26 H          -1.4052   -3.6923    1.1614 H       1  UNL1        0.0292
     27 H          -1.3030   -4.0257   -0.5886 H       1  UNL1        0.0292
     28 H           0.1391   -3.5178    0.3086 H       1  UNL1        0.0292
     29 H           0.5319    1.6671   -1.3414 H       1  UNL1        0.1478
     30 H           2.0382   -0.3965   -0.8285 H       1  UNL1        0.0498
     31 H           1.4653   -0.2688    1.6858 H       1  UNL1        0.0283
     32 H           2.1934    1.3200    1.7141 H       1  UNL1        0.0283
     33 H           3.9792    0.0252    2.4041 H       1  UNL1        0.0266
     34 H           3.4993   -1.3805    1.4712 H       1  UNL1        0.0266
     35 H           5.6334    0.0109    0.7561 H       1  UNL1        0.0265
     36 H           4.5767   -0.6930   -0.4586 H       1  UNL1        0.0265
     37 H           5.1242    1.6769   -1.0041 H       1  UNL1        0.0266
     38 H           4.4480    2.1899    0.5340 H       1  UNL1        0.0266
     39 H           2.6273    2.5724   -0.8123 H       1  UNL1        0.0283
     40 H           3.0472    1.3313   -1.9705 H       1  UNL1        0.0283
@<TRIPOS>BOND
     1     1     2    1
     2     2     3    1
     3     3     4    1
     4     4     5   ar
     5     5     6   ar
     6     6     7    1
     7     6     8   ar
     8     8     9   ar
     9     9    10    1
    10    10    11    1
    11    11    12    1
    12    12    13    1
    13    13    14    1
    14    14    15    1
    15    15    16    1
    16     9    17   ar
    17    17    18    1
    18    18    19    3
    19    17     4   ar
    20    16    11    1
    21     1    20    1
    22     1    21    1
    23     1    22    1
    24     3    23    1
    25     3    24    1
    26     5    25    1
    27     7    26    1
    28     7    27    1
    29     7    28    1
    30    10    29    1
    31    11    30    1
    32    12    31    1
    33    12    32    1
    34    13    33    1
    35    13    34    1
    36    14    35    1
    37    14    36    1
    38    15    37    1
    39    15    38    1
    40    16    39    1
    41    16    40    1
