@<TRIPOS>MOLECULE
*****
 41 47 0 0 0
SMALL
GASTEIGER

@<TRIPOS>ATOM
      1 SI          7.7131   -0.1462   -0.6949 Si      1  UNL1        0.0000
      2 C           6.3840    1.0075   -1.4433 C.2     1  UNL1        0.0000
      3 C           5.1455    0.6811   -1.0127 C.2     1  UNL1        0.0000
      4 C           5.0895   -0.4295   -0.1043 C.ar    1  UNL1        0.0000
      5 C           6.3318   -1.0453    0.2145 C.ar    1  UNL1        0.0000
      6 C           6.2491   -2.1053    1.0625 C.ar    1  UNL1        0.0000
      7 S           4.5998   -2.3647    1.4942 S.2     1  UNL1        0.0000
      8 C           4.0291   -1.0414    0.5259 C.ar    1  UNL1        0.0000
      9 C           2.6332   -0.6921    0.4836 C.ar    1  UNL1        0.0000
     10 C           2.0887    0.5504    0.7247 C.ar    1  UNL1        0.0000
     11 C           0.6593    0.5816    0.5902 C.ar    1  UNL1        0.0000
     12 C          -0.2432    1.6381    0.7568 C.ar    1  UNL1        0.0000
     13 N          -1.5714    1.4634    0.5793 N.ar    1  UNL1        0.0000
     14 C          -2.0707    0.2507    0.2347 C.ar    1  UNL1        0.0000
     15 C          -1.2379   -0.8602    0.0495 C.ar    1  UNL1        0.0000
     16 N          -1.6325   -2.1164   -0.2963 N.ar    1  UNL1        0.0000
     17 C          -2.9567   -2.3089   -0.4768 C.ar    1  UNL1        0.0000
     18 C          -3.9302   -1.3274   -0.3369 C.ar    1  UNL1        0.0000
     19 C          -5.3265   -1.6465   -0.5558 C.ar    1  UNL1        0.0000
     20 C          -6.3955   -0.7309   -0.4415 C.ar    1  UNL1        0.0000
     21 C          -5.9188    0.5199   -0.0894 C.ar    1  UNL1        0.0000
     22 C          -6.6933    1.6344    0.1035 C.ar    1  UNL1        0.0000
     23 N          -5.8374    2.6601    0.4399 N.ar    1  UNL1        0.0000
     24 C          -4.5363    2.2058    0.4608 C.ar    1  UNL1        0.0000
     25 C          -4.5529    0.8708    0.1341 C.ar    1  UNL1        0.0000
     26 C          -3.4497   -0.0214    0.0290 C.ar    1  UNL1        0.0000
     27 C           0.1480   -0.6686    0.2362 C.ar    1  UNL1        0.0000
     28 S           1.4248   -1.8270    0.0857 S.2     1  UNL1        0.0000
     29 H           8.3722   -0.9537   -1.7507 H       1  UNL1        0.0000
     30 H           8.6288    0.6104    0.1946 H       1  UNL1        0.0000
     31 H           6.6570    1.7939   -2.1284 H       1  UNL1        0.0000
     32 H           4.2547    1.2064   -1.3372 H       1  UNL1        0.0000
     33 H           7.0289   -2.7431    1.4563 H       1  UNL1        0.0000
     34 H           2.6865    1.4120    0.9986 H       1  UNL1        0.0000
     35 H           0.0715    2.6394    1.0328 H       1  UNL1        0.0000
     36 H          -3.2203   -3.3281   -0.7509 H       1  UNL1        0.0000
     37 H          -5.5850   -2.6715   -0.8307 H       1  UNL1        0.0000
     38 H          -7.4301   -0.9922   -0.6095 H       1  UNL1        0.0000
     39 H          -7.7594    1.8034    0.0371 H       1  UNL1        0.0000
     40 H          -6.1197    3.6100    0.6432 H       1  UNL1        0.0000
     41 H          -3.7280    2.8812    0.7073 H       1  UNL1        0.0000
@<TRIPOS>BOND
     1     1     2    1
     2     2     3    2
     3     3     4    1
     4     4     5   ar
     5     5     6   ar
     6     6     7   ar
     7     7     8   ar
     8     8     9    1
     9     9    10   ar
    10    10    11   ar
    11    11    12   ar
    12    12    13   ar
    13    13    14   ar
    14    14    15   ar
    15    15    16   ar
    16    16    17   ar
    17    17    18   ar
    18    18    19   ar
    19    19    20   ar
    20    20    21   ar
    21    21    22   ar
    22    22    23   ar
    23    23    24   ar
    24    24    25   ar
    25    25    26   ar
    26    15    27   ar
    27    27    28   ar
    28     5     1    1
    29    28     9   ar
    30     8     4   ar
    31    27    11   ar
    32    26    14   ar
    33    26    18   ar
    34    25    21   ar
    35     1    29    1
    36     1    30    1
    37     2    31    1
    38     3    32    1
    39     6    33    1
    40    10    34    1
    41    12    35    1
    42    17    36    1
    43    19    37    1
    44    20    38    1
    45    22    39    1
    46    23    40    1
    47    24    41    1
