@<TRIPOS>MOLECULE
*****
 46 48 0 0 0
SMALL
GASTEIGER

@<TRIPOS>ATOM
      1 C           5.0982    2.4323   -0.7963 C.3     1  UNL1        0.0369
      2 O           4.2001    1.7975   -1.6986 O.3     1  UNL1       -0.3784
      3 C           4.4314    0.3903   -1.8096 C.3     1  UNL1        0.0731
      4 C           3.8830   -0.3767   -0.6287 C.ar    1  UNL1       -0.0088
      5 C           4.7440   -1.2254    0.0903 C.ar    1  UNL1       -0.0346
      6 C           4.2625   -1.9725    1.1593 C.ar    1  UNL1        0.0399
      7 C           5.2001   -2.8713    1.9137 C.3     1  UNL1       -0.0223
      8 N           2.9826   -1.9531    1.5720 N.ar    1  UNL1       -0.2447
      9 C           2.1731   -1.1369    0.8681 C.ar    1  UNL1        0.1113
     10 S           0.5264   -1.0344    1.2762 S.2     1  UNL1       -0.0622
     11 C           0.2117    0.1109    0.0410 C.ar    1  UNL1        0.0970
     12 C          -1.1191    0.6793   -0.1480 C.2     1  UNL1        0.2528
     13 O          -1.3537    1.5902   -0.9424 O.2     1  UNL1       -0.2696
     14 N          -2.1263    0.1286    0.6246 N.am    1  UNL1       -0.3080
     15 C          -3.5266    0.4774    0.4473 C.3     1  UNL1        0.0234
     16 C          -4.1337   -0.2980   -0.7295 C.3     1  UNL1       -0.0345
     17 C          -5.6229   -0.0035   -0.8906 C.3     1  UNL1       -0.0514
     18 C          -6.3918   -0.2618    0.4015 C.3     1  UNL1       -0.0529
     19 C          -5.7928    0.5073    1.5751 C.3     1  UNL1       -0.0514
     20 C          -4.3049    0.2104    1.7404 C.3     1  UNL1       -0.0345
     21 C           1.3658    0.3925   -0.6702 C.ar    1  UNL1        0.0537
     22 N           1.4027    1.2720   -1.7025 N.pl3   1  UNL1       -0.3564
     23 C           2.5238   -0.3307   -0.2086 C.ar    1  UNL1        0.0344
     24 H           4.8804    3.5038   -0.7966 H       1  UNL1        0.0524
     25 H           6.1336    2.2888   -1.1197 H       1  UNL1        0.0524
     26 H           4.9639    2.0545    0.2213 H       1  UNL1        0.0524
     27 H           3.9178    0.0414   -2.7128 H       1  UNL1        0.0610
     28 H           5.5004    0.2011   -1.9652 H       1  UNL1        0.0610
     29 H           5.7918   -1.3055   -0.1886 H       1  UNL1        0.0639
     30 H           4.6788   -3.3838    2.7287 H       1  UNL1        0.0292
     31 H           6.0174   -2.2864    2.3471 H       1  UNL1        0.0292
     32 H           5.6156   -3.6308    1.2441 H       1  UNL1        0.0292
     33 H          -1.8931   -0.6993    1.1591 H       1  UNL1        0.1493
     34 H          -3.5790    1.5504    0.2217 H       1  UNL1        0.0498
     35 H          -3.6113   -0.0461   -1.6602 H       1  UNL1        0.0283
     36 H          -3.9904   -1.3759   -0.5773 H       1  UNL1        0.0283
     37 H          -5.7565    1.0428   -1.1918 H       1  UNL1        0.0266
     38 H          -6.0359   -0.6224   -1.6951 H       1  UNL1        0.0266
     39 H          -7.4413    0.0246    0.2698 H       1  UNL1        0.0265
     40 H          -6.3791   -1.3358    0.6248 H       1  UNL1        0.0265
     41 H          -6.3253    0.2468    2.4967 H       1  UNL1        0.0266
     42 H          -5.9347    1.5835    1.4171 H       1  UNL1        0.0266
     43 H          -3.8974    0.8221    2.5546 H       1  UNL1        0.0283
     44 H          -4.1758   -0.8365    2.0456 H       1  UNL1        0.0283
     45 H           2.2857    1.7467   -1.9142 H       1  UNL1        0.1424
     46 H           0.6007    1.8917   -1.8472 H       1  UNL1        0.1424
@<TRIPOS>BOND
     1     1     2    1
     2     2     3    1
     3     3     4    1
     4     4     5   ar
     5     5     6   ar
     6     6     7    1
     7     6     8   ar
     8     8     9   ar
     9     9    10   ar
    10    10    11   ar
    11    11    12    1
    12    12    13    2
    13    12    14   am
    14    14    15    1
    15    15    16    1
    16    16    17    1
    17    17    18    1
    18    18    19    1
    19    19    20    1
    20    11    21   ar
    21    21    22    1
    22    21    23   ar
    23    23     4   ar
    24    23     9   ar
    25    20    15    1
    26     1    24    1
    27     1    25    1
    28     1    26    1
    29     3    27    1
    30     3    28    1
    31     5    29    1
    32     7    30    1
    33     7    31    1
    34     7    32    1
    35    14    33    1
    36    15    34    1
    37    16    35    1
    38    16    36    1
    39    17    37    1
    40    17    38    1
    41    18    39    1
    42    18    40    1
    43    19    41    1
    44    19    42    1
    45    20    43    1
    46    20    44    1
    47    22    45    1
    48    22    46    1
