@<TRIPOS>MOLECULE
*****
 38 40 0 0 0
SMALL
GASTEIGER

@<TRIPOS>ATOM
      1 C          -0.5167   -4.1005    4.3310 C.3     1  UNL1        0.0369
      2 O          -0.0436   -3.0448    3.5057 O.3     1  UNL1       -0.3769
      3 C          -1.1127   -2.1969    3.0799 C.3     1  UNL1        0.0894
      4 C          -0.6154   -1.1603    2.0998 C.ar    1  UNL1        0.0717
      5 C           0.6031   -0.5390    2.2827 C.ar    1  UNL1       -0.0058
      6 C           0.9559    0.4031    1.3436 C.ar    1  UNL1        0.1058
      7 S           2.5206    1.2504    1.5017 S.3     1  UNL1       -0.0669
      8 C           2.9649    1.4230   -0.2354 C.ar    1  UNL1        0.0507
      9 C           2.7525    2.6347   -0.9215 C.ar    1  UNL1        0.0561
     10 CL          2.0688    4.0370   -0.1627 Cl      1  UNL1       -0.0823
     11 C           3.0825    2.7614   -2.2774 C.ar    1  UNL1       -0.0422
     12 C           3.6325    1.6873   -2.9711 C.ar    1  UNL1       -0.0589
     13 C           3.8570    0.4834   -2.3084 C.ar    1  UNL1       -0.0422
     14 C           3.5276    0.3488   -0.9536 C.ar    1  UNL1        0.0561
     15 CL          3.8548   -1.1937   -0.2294 Cl      1  UNL1       -0.0823
     16 N           0.1674    0.7391    0.3101 N.ar    1  UNL1       -0.2207
     17 C          -1.0118    0.1059    0.2135 C.ar    1  UNL1        0.1612
     18 C          -1.9110    0.4956   -0.8925 C.ar    1  UNL1        0.0191
     19 C          -3.0697   -0.2442   -1.1975 C.ar    1  UNL1       -0.0510
     20 C          -3.9329    0.1411   -2.2294 C.ar    1  UNL1       -0.0611
     21 C          -3.6553    1.2776   -2.9834 C.ar    1  UNL1       -0.0617
     22 C          -2.5140    2.0255   -2.7112 C.ar    1  UNL1       -0.0611
     23 C          -1.6528    1.6363   -1.6795 C.ar    1  UNL1       -0.0510
     24 N          -1.4370   -0.8365    1.0758 N.ar    1  UNL1       -0.2298
     25 H          -1.1983   -4.7466    3.7717 H       1  UNL1        0.0524
     26 H           0.3412   -4.6945    4.6531 H       1  UNL1        0.0524
     27 H          -1.0197   -3.7003    5.2178 H       1  UNL1        0.0524
     28 H          -1.5403   -1.6844    3.9488 H       1  UNL1        0.0625
     29 H          -1.8914   -2.8036    2.6019 H       1  UNL1        0.0625
     30 H           1.2500   -0.7956    3.1117 H       1  UNL1        0.0663
     31 H           2.9088    3.7000   -2.7994 H       1  UNL1        0.0632
     32 H           3.8849    1.7875   -4.0250 H       1  UNL1        0.0618
     33 H           4.2768   -0.3550   -2.8578 H       1  UNL1        0.0632
     34 H          -3.3117   -1.1366   -0.6199 H       1  UNL1        0.0625
     35 H          -4.8227   -0.4478   -2.4380 H       1  UNL1        0.0618
     36 H          -4.3286    1.5814   -3.7812 H       1  UNL1        0.0618
     37 H          -2.2924    2.9156   -3.2932 H       1  UNL1        0.0618
     38 H          -0.7713    2.2455   -1.4814 H       1  UNL1        0.0625
@<TRIPOS>BOND
     1     1     2    1
     2     2     3    1
     3     3     4    1
     4     4     5   ar
     5     5     6   ar
     6     6     7    1
     7     7     8    1
     8     8     9   ar
     9     9    10    1
    10     9    11   ar
    11    11    12   ar
    12    12    13   ar
    13    13    14   ar
    14    14    15    1
    15     6    16   ar
    16    16    17   ar
    17    17    18    1
    18    18    19   ar
    19    19    20   ar
    20    20    21   ar
    21    21    22   ar
    22    22    23   ar
    23    17    24   ar
    24    24     4   ar
    25    14     8   ar
    26    23    18   ar
    27     1    25    1
    28     1    26    1
    29     1    27    1
    30     3    28    1
    31     3    29    1
    32     5    30    1
    33    11    31    1
    34    12    32    1
    35    13    33    1
    36    19    34    1
    37    20    35    1
    38    21    36    1
    39    22    37    1
    40    23    38    1
