@<TRIPOS>MOLECULE
*****
 43 47 0 0 0
SMALL
GASTEIGER

@<TRIPOS>ATOM
      1 C           6.3251    2.5502   -0.3444 C.3     1  UNL1        0.0369
      2 O           6.7306    1.2913    0.1800 O.3     1  UNL1       -0.3779
      3 C           5.7900    0.7582    1.1154 C.3     1  UNL1        0.0785
      4 C           4.7139    0.0374    0.3530 C.ar    1  UNL1        0.0165
      5 C           4.8978   -0.9175   -0.6614 C.ar    1  UNL1       -0.0410
      6 C           3.6801   -1.4147   -1.1796 C.ar    1  UNL1       -0.0028
      7 C           3.3910   -2.3259   -2.1340 C.ar    1  UNL1       -0.0154
      8 S           1.6781   -2.4588   -2.2350 S.2     1  UNL1       -0.0944
      9 C           1.4113   -1.2660   -1.0106 C.ar    1  UNL1        0.0402
     10 C           0.0952   -0.8734   -0.5962 C.ar    1  UNL1        0.0284
     11 C          -0.9402   -1.7057   -0.2302 C.ar    1  UNL1       -0.0350
     12 C          -2.1504   -1.0053    0.1101 C.ar    1  UNL1        0.0361
     13 C          -1.9786    0.3734    0.0060 C.ar    1  UNL1        0.0657
     14 S          -0.3936    0.7596   -0.5555 S.2     1  UNL1       -0.0839
     15 C          -3.0212    1.2529    0.3346 C.ar    1  UNL1        0.1427
     16 O          -2.8367    2.6240    0.2015 O.3     1  UNL1       -0.4933
     17 C          -2.3743    3.1714    1.4377 C.3     1  UNL1        0.0789
     18 C          -4.2822    0.7713    0.7397 C.ar    1  UNL1        0.0355
     19 C          -5.4913    1.4736    1.0818 C.ar    1  UNL1       -0.0433
     20 C          -6.5140    0.6363    1.4553 C.ar    1  UNL1       -0.0230
     21 S          -6.0449   -0.9988    1.3971 S.2     1  UNL1       -0.0929
     22 C          -4.4546   -0.6094    0.8419 C.ar    1  UNL1        0.0651
     23 C          -3.4111   -1.4881    0.5136 C.ar    1  UNL1        0.1427
     24 O          -3.5943   -2.8593    0.6464 O.3     1  UNL1       -0.4933
     25 C          -4.0438   -3.4094   -0.5933 C.3     1  UNL1        0.0789
     26 C           2.6094   -0.8051   -0.5267 C.ar    1  UNL1        0.0349
     27 S           3.0368    0.3873    0.7630 S.2     1  UNL1       -0.0897
     28 H           6.2305    3.2870    0.4590 H       1  UNL1        0.0524
     29 H           5.3812    2.4638   -0.8904 H       1  UNL1        0.0524
     30 H           7.0955    2.8939   -1.0400 H       1  UNL1        0.0524
     31 H           6.3241    0.0328    1.7388 H       1  UNL1        0.0615
     32 H           5.4091    1.5457    1.7755 H       1  UNL1        0.0615
     33 H           5.8853   -1.2161   -0.9950 H       1  UNL1        0.0633
     34 H           4.0461   -2.9158   -2.7595 H       1  UNL1        0.0700
     35 H          -0.8515   -2.7856   -0.1975 H       1  UNL1        0.0636
     36 H          -3.1262    3.0597    2.2261 H       1  UNL1        0.0660
     37 H          -1.4280    2.7182    1.7516 H       1  UNL1        0.0660
     38 H          -2.2021    4.2410    1.2849 H       1  UNL1        0.0660
     39 H          -5.5893    2.5522    1.0537 H       1  UNL1        0.0630
     40 H          -7.5146    0.9084    1.7620 H       1  UNL1        0.0694
     41 H          -3.2826   -3.3023   -1.3733 H       1  UNL1        0.0660
     42 H          -4.2208   -4.4780   -0.4391 H       1  UNL1        0.0660
     43 H          -4.9851   -2.9544   -0.9194 H       1  UNL1        0.0660
@<TRIPOS>BOND
     1     1     2    1
     2     2     3    1
     3     3     4    1
     4     4     5   ar
     5     5     6   ar
     6     6     7   ar
     7     7     8   ar
     8     8     9   ar
     9     9    10    1
    10    10    11   ar
    11    11    12   ar
    12    12    13   ar
    13    13    14   ar
    14    13    15   ar
    15    15    16    1
    16    16    17    1
    17    15    18   ar
    18    18    19   ar
    19    19    20   ar
    20    20    21   ar
    21    21    22   ar
    22    22    23   ar
    23    23    24    1
    24    24    25    1
    25     9    26   ar
    26    26    27   ar
    27    27     4   ar
    28    26     6   ar
    29    14    10   ar
    30    22    18   ar
    31    23    12   ar
    32     1    28    1
    33     1    29    1
    34     1    30    1
    35     3    31    1
    36     3    32    1
    37     5    33    1
    38     7    34    1
    39    11    35    1
    40    17    36    1
    41    17    37    1
    42    17    38    1
    43    19    39    1
    44    20    40    1
    45    25    41    1
    46    25    42    1
    47    25    43    1
