@<TRIPOS>MOLECULE
*****
 25 26 0 0 0
SMALL
GASTEIGER

@<TRIPOS>ATOM
      1 C           4.8370    1.6773   -0.7209 C.3     1  UNL1        0.0370
      2 O           4.5683    0.7196    0.2970 O.3     1  UNL1       -0.3763
      3 C           4.0743   -0.5190   -0.2251 C.3     1  UNL1        0.0975
      4 C           2.6146   -0.3958   -0.5118 C.ar    1  UNL1        0.1292
      5 N           2.0930   -0.2532   -1.7145 N.ar    1  UNL1       -0.1423
      6 N           0.7169   -0.1624   -1.6707 N.ar    1  UNL1       -0.1256
      7 C           0.2507   -0.2425   -0.4433 C.ar    1  UNL1        0.1881
      8 N          -1.0948   -0.1807   -0.1821 N.am    1  UNL1       -0.2588
      9 C          -1.7105   -0.2227    1.0515 C.2     1  UNL1        0.2563
     10 O          -1.1120   -0.2999    2.1197 O.2     1  UNL1       -0.2692
     11 C          -3.1738   -0.1542    0.9761 C.ar    1  UNL1        0.0742
     12 C          -4.0346   -0.3481   -0.0934 C.ar    1  UNL1       -0.0425
     13 C          -5.4063   -0.1814    0.2648 C.ar    1  UNL1       -0.0540
     14 C          -5.5573    0.1271    1.5961 C.ar    1  UNL1       -0.0236
     15 S          -4.0579    0.2080    2.4078 S.2     1  UNL1       -0.0921
     16 S           1.4484   -0.4444    0.7486 S.2     1  UNL1       -0.0330
     17 H           5.2390    2.5759   -0.2450 H       1  UNL1        0.0524
     18 H           3.9226    1.9511   -1.2548 H       1  UNL1        0.0524
     19 H           5.5843    1.2931   -1.4218 H       1  UNL1        0.0524
     20 H           4.2469   -1.2894    0.5342 H       1  UNL1        0.0631
     21 H           4.6347   -0.8131   -1.1199 H       1  UNL1        0.0631
     22 H          -1.6457   -0.0456   -1.0148 H       1  UNL1        0.1571
     23 H          -3.7206   -0.6135   -1.0950 H       1  UNL1        0.0630
     24 H          -6.2398   -0.2893   -0.4192 H       1  UNL1        0.0623
     25 H          -6.4776    0.3032    2.1366 H       1  UNL1        0.0693
@<TRIPOS>BOND
     1     1     2    1
     2     2     3    1
     3     3     4    1
     4     4     5   ar
     5     5     6   ar
     6     6     7   ar
     7     7     8    1
     8     8     9   am
     9     9    10    2
    10     9    11    1
    11    11    12   ar
    12    12    13   ar
    13    13    14   ar
    14    14    15   ar
    15     7    16   ar
    16    16     4   ar
    17    15    11   ar
    18     1    17    1
    19     1    18    1
    20     1    19    1
    21     3    20    1
    22     3    21    1
    23     8    22    1
    24    12    23    1
    25    13    24    1
    26    14    25    1
