@<TRIPOS>MOLECULE
*****
 43 47 0 0 0
SMALL
GASTEIGER

@<TRIPOS>ATOM
      1 C           6.7081   -0.6103    2.4140 C.3     1  UNL1        0.0369
      2 O           5.7336   -0.6008    1.3809 O.3     1  UNL1       -0.3778
      3 C           5.0892   -1.8661    1.2580 C.3     1  UNL1        0.0812
      4 C           4.1045   -1.7365    0.1411 C.ar    1  UNL1        0.0516
      5 S           2.5231   -1.0325    0.4859 S.2     1  UNL1       -0.0868
      6 C           2.1747   -1.2872   -1.2757 C.ar    1  UNL1        0.0377
      7 C           3.1916   -1.8751   -2.0274 C.ar    1  UNL1        0.0324
      8 C           2.9514   -2.0910   -3.3389 C.ar    1  UNL1       -0.0127
      9 S           1.3587   -1.5348   -3.6808 S.2     1  UNL1       -0.0943
     10 C           1.0747   -1.0252   -2.0524 C.ar    1  UNL1        0.0403
     11 C          -0.1435   -0.4041   -1.6162 C.ar    1  UNL1        0.0284
     12 C          -0.2711    0.7517   -0.8773 C.ar    1  UNL1       -0.0350
     13 C          -1.6354    1.1008   -0.5822 C.ar    1  UNL1        0.0361
     14 C          -2.5210    0.1784   -1.1351 C.ar    1  UNL1        0.0657
     15 S          -1.6737   -1.0683   -1.9746 S.2     1  UNL1       -0.0839
     16 C          -3.9068    0.3316   -0.9772 C.ar    1  UNL1        0.1427
     17 O          -4.7737   -0.5888   -1.5539 O.3     1  UNL1       -0.4933
     18 C          -5.0895   -1.6119   -0.6085 C.3     1  UNL1        0.0789
     19 C          -4.4456    1.4553   -0.3190 C.ar    1  UNL1        0.0355
     20 C          -5.8119    1.8561   -0.1088 C.ar    1  UNL1       -0.0433
     21 C          -5.9273    3.0321    0.5915 C.ar    1  UNL1       -0.0230
     22 S          -4.4057    3.6738    1.0041 S.2     1  UNL1       -0.0929
     23 C          -3.5582    2.3752    0.2404 C.ar    1  UNL1        0.0651
     24 C          -2.1718    2.1842    0.1413 C.ar    1  UNL1        0.1427
     25 O          -1.3050    3.1233    0.6870 O.3     1  UNL1       -0.4933
     26 C          -0.9343    2.7282    2.0086 C.3     1  UNL1        0.0789
     27 C           4.2922   -2.1233   -1.1859 C.ar    1  UNL1        0.1440
     28 F           5.4292   -2.6910   -1.6174 F       1  UNL1       -0.2039
     29 H           7.4871   -1.3485    2.2000 H       1  UNL1        0.0524
     30 H           6.2407   -0.8247    3.3799 H       1  UNL1        0.0524
     31 H           7.1694    0.3798    2.4619 H       1  UNL1        0.0524
     32 H           5.8307   -2.6395    1.0261 H       1  UNL1        0.0616
     33 H           4.5902   -2.1298    2.1978 H       1  UNL1        0.0616
     34 H           3.5816   -2.5266   -4.1019 H       1  UNL1        0.0701
     35 H           0.5741    1.3490   -0.5545 H       1  UNL1        0.0636
     36 H          -4.1917   -2.1418   -0.2732 H       1  UNL1        0.0660
     37 H          -5.6304   -1.2031    0.2516 H       1  UNL1        0.0660
     38 H          -5.7430   -2.3351   -1.1054 H       1  UNL1        0.0660
     39 H          -6.6658    1.2960   -0.4704 H       1  UNL1        0.0630
     40 H          -6.8343    3.5476    0.8761 H       1  UNL1        0.0694
     41 H          -1.8099    2.6216    2.6580 H       1  UNL1        0.0660
     42 H          -0.3575    1.7973    1.9963 H       1  UNL1        0.0660
     43 H          -0.2977    3.5141    2.4258 H       1  UNL1        0.0660
@<TRIPOS>BOND
     1     1     2    1
     2     2     3    1
     3     3     4    1
     4     4     5   ar
     5     5     6   ar
     6     6     7   ar
     7     7     8   ar
     8     8     9   ar
     9     9    10   ar
    10    10    11    1
    11    11    12   ar
    12    12    13   ar
    13    13    14   ar
    14    14    15   ar
    15    14    16   ar
    16    16    17    1
    17    17    18    1
    18    16    19   ar
    19    19    20   ar
    20    20    21   ar
    21    21    22   ar
    22    22    23   ar
    23    23    24   ar
    24    24    25    1
    25    25    26    1
    26     7    27   ar
    27    27    28    1
    28    27     4   ar
    29    10     6   ar
    30    15    11   ar
    31    23    19   ar
    32    24    13   ar
    33     1    29    1
    34     1    30    1
    35     1    31    1
    36     3    32    1
    37     3    33    1
    38     8    34    1
    39    12    35    1
    40    18    36    1
    41    18    37    1
    42    18    38    1
    43    20    39    1
    44    21    40    1
    45    26    41    1
    46    26    42    1
    47    26    43    1
