@<TRIPOS>MOLECULE
*****
 35 37 0 0 0
SMALL
GASTEIGER

@<TRIPOS>ATOM
      1 C           6.2078    1.2003   -0.3873 C.3     1  UNL1        0.0364
      2 O           5.7385   -0.0731   -0.8106 O.3     1  UNL1       -0.3829
      3 C           4.6724   -0.5762   -0.0057 C.3     1  UNL1        0.0487
      4 C           3.3351    0.0279   -0.4208 C.3     1  UNL1       -0.0139
      5 C           2.1815   -0.6135    0.3454 C.3     1  UNL1        0.0126
      6 N           0.9273    0.0125   -0.0603 N.pl3   1  UNL1       -0.3273
      7 C          -0.2076   -0.4700    0.5940 C.ar    1  UNL1        0.1461
      8 N          -0.1145   -1.2439    1.6956 N.ar    1  UNL1       -0.2188
      9 C          -1.2457   -1.6923    2.2733 C.ar    1  UNL1        0.1188
     10 N          -2.5107   -1.4720    1.8947 N.ar    1  UNL1       -0.2332
     11 C          -2.6035   -0.6789    0.8041 C.ar    1  UNL1        0.1013
     12 C          -1.4908   -0.1720    0.1508 C.ar    1  UNL1        0.1063
     13 N          -1.9517    0.6084   -0.8802 N.ar    1  UNL1       -0.3502
     14 C          -3.3276    0.5916   -0.9308 C.ar    1  UNL1        0.0491
     15 C          -4.2094    1.2268   -1.8130 C.ar    1  UNL1       -0.0377
     16 C          -5.5792    1.0282   -1.6115 C.ar    1  UNL1       -0.0598
     17 C          -6.0460    0.2298   -0.5691 C.ar    1  UNL1       -0.0610
     18 C          -5.1505   -0.3954    0.3055 C.ar    1  UNL1       -0.0505
     19 C          -3.7649   -0.2136    0.1227 C.ar    1  UNL1        0.0258
     20 H           7.0496    1.4828   -1.0255 H       1  UNL1        0.0523
     21 H           5.4290    1.9602   -0.4909 H       1  UNL1        0.0523
     22 H           6.5582    1.1565    0.6484 H       1  UNL1        0.0523
     23 H           4.6461   -1.6599   -0.1645 H       1  UNL1        0.0560
     24 H           4.8810   -0.4086    1.0576 H       1  UNL1        0.0560
     25 H           3.3385    1.1108   -0.2496 H       1  UNL1        0.0302
     26 H           3.1949   -0.0991   -1.5019 H       1  UNL1        0.0302
     27 H           2.1533   -1.6899    0.1345 H       1  UNL1        0.0462
     28 H           2.3486   -0.4737    1.4208 H       1  UNL1        0.0462
     29 H           0.7888    0.0334   -1.0639 H       1  UNL1        0.1475
     30 H          -1.1134   -2.3122    3.1545 H       1  UNL1        0.1048
     31 H          -1.3603    1.1404   -1.5012 H       1  UNL1        0.1661
     32 H          -3.8529    1.8524   -2.6249 H       1  UNL1        0.0638
     33 H          -6.2923    1.5070   -2.2792 H       1  UNL1        0.0618
     34 H          -7.1154    0.0908   -0.4303 H       1  UNL1        0.0618
     35 H          -5.5142   -1.0157    1.1200 H       1  UNL1        0.0625
@<TRIPOS>BOND
     1     1     2    1
     2     2     3    1
     3     3     4    1
     4     4     5    1
     5     5     6    1
     6     6     7    1
     7     7     8   ar
     8     8     9   ar
     9     9    10   ar
    10    10    11   ar
    11    11    12   ar
    12    12    13   ar
    13    13    14   ar
    14    14    15   ar
    15    15    16   ar
    16    16    17   ar
    17    17    18   ar
    18    18    19   ar
    19    12     7   ar
    20    19    14   ar
    21    19    11   ar
    22     1    20    1
    23     1    21    1
    24     1    22    1
    25     3    23    1
    26     3    24    1
    27     4    25    1
    28     4    26    1
    29     5    27    1
    30     5    28    1
    31     6    29    1
    32     9    30    1
    33    13    31    1
    34    15    32    1
    35    16    33    1
    36    17    34    1
    37    18    35    1
