@<TRIPOS>MOLECULE
*****
 42 43 0 0 0
SMALL
GASTEIGER

@<TRIPOS>ATOM
      1 C          -5.0762   -2.1467   -1.5417 C.3     1  UNL1        0.0365
      2 O          -4.4170   -0.8920   -1.4372 O.3     1  UNL1       -0.3812
      3 C          -4.8029   -0.1871   -0.2546 C.3     1  UNL1        0.0652
      4 C          -3.9942    1.1018   -0.1207 C.3     1  UNL1        0.0466
      5 N          -2.7010    0.8871    0.5266 N.ar    1  UNL1       -0.3454
      6 C          -2.4840    1.0023    1.8875 C.ar    1  UNL1        0.0166
      7 C          -3.5429    1.3465    2.8753 C.3     1  UNL1       -0.0242
      8 C          -1.1490    0.7452    2.1142 C.ar    1  UNL1       -0.0323
      9 C          -0.5254    0.4582    0.8706 C.ar    1  UNL1        0.0152
     10 C           0.8821    0.1245    0.7034 C.2     1  UNL1        0.0545
     11 N           1.3549   -0.1524   -0.4696 N.2     1  UNL1       -0.1874
     12 N           2.6916   -0.4385   -0.5963 N.am    1  UNL1       -0.2029
     13 C           3.7087    0.1158    0.1728 C.2     1  UNL1        0.2647
     14 O           3.5642    0.8856    1.1171 O.2     1  UNL1       -0.2684
     15 C           5.0853   -0.2459   -0.2408 C.ar    1  UNL1        0.0564
     16 C           6.1337    0.6512   -0.0242 C.ar    1  UNL1       -0.0467
     17 C           7.4257    0.3031   -0.4116 C.ar    1  UNL1       -0.0429
     18 C           7.6244   -0.9374   -0.9970 C.ar    1  UNL1        0.0276
     19 N           6.6359   -1.8354   -1.2071 N.ar    1  UNL1       -0.2625
     20 C           5.3900   -1.4741   -0.8133 C.ar    1  UNL1        0.0397
     21 C          -1.5137    0.5589   -0.1053 C.ar    1  UNL1        0.0246
     22 C          -1.3861    0.3460   -1.5791 C.3     1  UNL1       -0.0236
     23 H          -6.1610   -2.0082   -1.5753 H       1  UNL1        0.0523
     24 H          -4.7557   -2.6277   -2.4696 H       1  UNL1        0.0523
     25 H          -4.8039   -2.7928   -0.7015 H       1  UNL1        0.0523
     26 H          -5.8644    0.0690   -0.3492 H       1  UNL1        0.0577
     27 H          -4.6744   -0.8301    0.6241 H       1  UNL1        0.0577
     28 H          -4.5442    1.8215    0.4947 H       1  UNL1        0.0514
     29 H          -3.8194    1.5846   -1.0863 H       1  UNL1        0.0514
     30 H          -3.8805    2.3780    2.7346 H       1  UNL1        0.0292
     31 H          -3.1646    1.2554    3.8989 H       1  UNL1        0.0292
     32 H          -4.4026    0.6762    2.7792 H       1  UNL1        0.0292
     33 H          -0.6664    0.7598    3.0837 H       1  UNL1        0.0642
     34 H           1.4771    0.0896    1.6306 H       1  UNL1        0.0852
     35 H           2.9221   -0.7878   -1.5221 H       1  UNL1        0.1776
     36 H           5.9451    1.6160    0.4417 H       1  UNL1        0.0626
     37 H           8.2567    0.9830   -0.2583 H       1  UNL1        0.0633
     38 H           8.6137   -1.2533   -1.3173 H       1  UNL1        0.0829
     39 H           4.6375   -2.2424   -0.9667 H       1  UNL1        0.0837
     40 H          -1.1282   -0.6980   -1.7854 H       1  UNL1        0.0292
     41 H          -2.2942    0.5742   -2.1387 H       1  UNL1        0.0292
     42 H          -0.5967    0.9866   -1.9861 H       1  UNL1        0.0292
@<TRIPOS>BOND
     1     1     2    1
     2     2     3    1
     3     3     4    1
     4     4     5    1
     5     5     6   ar
     6     6     7    1
     7     6     8   ar
     8     8     9   ar
     9     9    10    1
    10    10    11    2
    11    11    12    1
    12    12    13   am
    13    13    14    2
    14    13    15    1
    15    15    16   ar
    16    16    17   ar
    17    17    18   ar
    18    18    19   ar
    19    19    20   ar
    20     9    21   ar
    21    21    22    1
    22    21     5   ar
    23    20    15   ar
    24     1    23    1
    25     1    24    1
    26     1    25    1
    27     3    26    1
    28     3    27    1
    29     4    28    1
    30     4    29    1
    31     7    30    1
    32     7    31    1
    33     7    32    1
    34     8    33    1
    35    10    34    1
    36    12    35    1
    37    16    36    1
    38    17    37    1
    39    18    38    1
    40    20    39    1
    41    22    40    1
    42    22    41    1
    43    22    42    1
