@<TRIPOS>MOLECULE
*****
 29 30 0 0 0
SMALL
GASTEIGER

@<TRIPOS>ATOM
      1 C          -3.8951   -0.7647    0.2377 C.3     1  UNL1        0.0365
      2 O          -2.6845   -0.6636   -0.5008 O.3     1  UNL1       -0.3812
      3 C          -1.5335   -1.0478    0.2505 C.3     1  UNL1        0.0653
      4 C          -0.9752    0.0948    1.1113 C.3     1  UNL1        0.0505
      5 N          -0.5065    1.2332    0.3124 N.ar    1  UNL1       -0.3010
      6 C           0.6000    1.3146   -0.4885 C.ar    1  UNL1        0.1655
      7 C           1.6098    0.2585   -0.5747 C.ar    1  UNL1        0.0543
      8 C           1.8880   -0.3034   -1.8252 C.ar    1  UNL1       -0.0483
      9 C           2.8629   -1.2971   -1.9367 C.ar    1  UNL1       -0.0609
     10 C           3.5686   -1.7155   -0.8064 C.ar    1  UNL1       -0.0590
     11 C           3.3065   -1.1350    0.4356 C.ar    1  UNL1       -0.0257
     12 C           2.3333   -0.1450    0.5441 C.ar    1  UNL1        0.1341
     13 F           2.1171    0.4150    1.7429 F       1  UNL1       -0.2047
     14 N           0.6743    2.4028   -1.2036 N.ar    1  UNL1       -0.1532
     15 N          -0.4368    3.1073   -0.8530 N.ar    1  UNL1       -0.2540
     16 C          -1.1909    2.4030    0.0735 C.ar    1  UNL1        0.1759
     17 S          -2.6141    2.9731    0.7045 S.2     1  UNL1       -0.0114
     18 H          -3.8611   -0.1568    1.1451 H       1  UNL1        0.0523
     19 H          -4.7124   -0.4045   -0.3930 H       1  UNL1        0.0523
     20 H          -4.0922   -1.8094    0.4968 H       1  UNL1        0.0523
     21 H          -0.7808   -1.3716   -0.4745 H       1  UNL1        0.0577
     22 H          -1.7653   -1.9176    0.8769 H       1  UNL1        0.0577
     23 H          -1.7354    0.4416    1.8159 H       1  UNL1        0.0516
     24 H          -0.1383   -0.2866    1.7003 H       1  UNL1        0.0516
     25 H           1.3477    0.0310   -2.7087 H       1  UNL1        0.0625
     26 H           3.0780   -1.7389   -2.9074 H       1  UNL1        0.0618
     27 H           4.3322   -2.4849   -0.8970 H       1  UNL1        0.0618
     28 H           3.8628   -1.4402    1.3168 H       1  UNL1        0.0646
     29 H          -0.6591    4.0079   -1.2578 H       1  UNL1        0.1910
@<TRIPOS>BOND
     1     1     2    1
     2     2     3    1
     3     3     4    1
     4     4     5    1
     5     5     6   ar
     6     6     7    1
     7     7     8   ar
     8     8     9   ar
     9     9    10   ar
    10    10    11   ar
    11    11    12   ar
    12    12    13    1
    13     6    14   ar
    14    14    15   ar
    15    15    16   ar
    16    16    17    2
    17    16     5   ar
    18    12     7   ar
    19     1    18    1
    20     1    19    1
    21     1    20    1
    22     3    21    1
    23     3    22    1
    24     4    23    1
    25     4    24    1
    26     8    25    1
    27     9    26    1
    28    10    27    1
    29    11    28    1
    30    15    29    1
