@<TRIPOS>MOLECULE
*****
 49 51 0 0 0
SMALL
GASTEIGER

@<TRIPOS>ATOM
      1 C          -3.6063    3.9631   -1.1291 C.3     1  UNL1        0.0365
      2 O          -3.7401    2.6026   -1.5404 O.3     1  UNL1       -0.3812
      3 C          -2.8002    1.7358   -0.9011 C.3     1  UNL1        0.0653
      4 C          -3.3584    1.2102    0.4160 C.3     1  UNL1        0.0506
      5 N          -2.4113    0.3859    1.1346 N.ar    1  UNL1       -0.2974
      6 C          -1.5080    0.8014    2.0739 C.ar    1  UNL1        0.1925
      7 S          -1.2191    2.4581    2.4802 S.3     1  UNL1       -0.0767
      8 C           0.3030    2.3160    3.4603 C.3     1  UNL1        0.0776
      9 C           1.4990    2.0760    2.5544 C.2     1  UNL1        0.2233
     10 O           2.1662    3.0017    2.1012 O.2     1  UNL1       -0.2749
     11 N           1.7659    0.7478    2.3017 N.am    1  UNL1       -0.3143
     12 C           2.8405    0.3045    1.4329 C.3     1  UNL1        0.0156
     13 C           2.3137   -0.5792    0.2990 C.3     1  UNL1       -0.0121
     14 C           3.4297   -1.0836   -0.5779 C.ar    1  UNL1       -0.0459
     15 C           3.9227   -0.2884   -1.6183 C.ar    1  UNL1       -0.0585
     16 C           4.9823   -0.7383   -2.4078 C.ar    1  UNL1       -0.0615
     17 C           5.5570   -1.9855   -2.1632 C.ar    1  UNL1       -0.0617
     18 C           5.0724   -2.7821   -1.1256 C.ar    1  UNL1       -0.0615
     19 C           4.0150   -2.3347   -0.3379 C.ar    1  UNL1       -0.0585
     20 N          -0.8991   -0.2350    2.6003 N.ar    1  UNL1       -0.1220
     21 N          -1.3742   -1.3566    1.9682 N.ar    1  UNL1       -0.1251
     22 C          -2.2587   -0.9798    1.0662 C.ar    1  UNL1        0.2003
     23 C          -2.9113   -1.8777    0.1630 C.ar    1  UNL1        0.1717
     24 C          -2.8079   -3.2598    0.1090 C.ar    1  UNL1       -0.0128
     25 C          -3.5974   -3.6992   -0.9770 C.ar    1  UNL1       -0.0232
     26 C          -4.1564   -2.5696   -1.5195 C.ar    1  UNL1        0.0927
     27 O          -3.7469   -1.4703   -0.8464 O.2     1  UNL1       -0.4598
     28 H          -4.3613    4.5550   -1.6524 H       1  UNL1        0.0523
     29 H          -2.6175    4.3449   -1.4004 H       1  UNL1        0.0523
     30 H          -3.7710    4.0639   -0.0526 H       1  UNL1        0.0523
     31 H          -2.6202    0.8990   -1.5825 H       1  UNL1        0.0577
     32 H          -1.8359    2.2408   -0.7689 H       1  UNL1        0.0577
     33 H          -3.6664    2.0325    1.0675 H       1  UNL1        0.0516
     34 H          -4.2781    0.6422    0.2534 H       1  UNL1        0.0516
     35 H           0.4677    3.2559    3.9960 H       1  UNL1        0.0475
     36 H           0.2222    1.5292    4.2177 H       1  UNL1        0.0475
     37 H           1.0960    0.0502    2.6266 H       1  UNL1        0.1487
     38 H           3.5443   -0.2535    2.0582 H       1  UNL1        0.0465
     39 H           3.3729    1.1681    1.0247 H       1  UNL1        0.0465
     40 H           1.7604   -1.4296    0.7156 H       1  UNL1        0.0328
     41 H           1.5863   -0.0228   -0.3061 H       1  UNL1        0.0328
     42 H           3.4914    0.6945   -1.8119 H       1  UNL1        0.0620
     43 H           5.3638   -0.1119   -3.2095 H       1  UNL1        0.0618
     44 H           6.3882   -2.3323   -2.7726 H       1  UNL1        0.0618
     45 H           5.5226   -3.7530   -0.9306 H       1  UNL1        0.0618
     46 H           3.6526   -2.9658    0.4688 H       1  UNL1        0.0620
     47 H          -2.2150   -3.8707    0.7774 H       1  UNL1        0.0656
     48 H          -3.7439   -4.7125   -1.3106 H       1  UNL1        0.0649
     49 H          -4.8307   -2.3872   -2.3455 H       1  UNL1        0.1029
@<TRIPOS>BOND
     1     1     2    1
     2     2     3    1
     3     3     4    1
     4     4     5    1
     5     5     6   ar
     6     6     7    1
     7     7     8    1
     8     8     9    1
     9     9    10    2
    10     9    11   am
    11    11    12    1
    12    12    13    1
    13    13    14    1
    14    14    15   ar
    15    15    16   ar
    16    16    17   ar
    17    17    18   ar
    18    18    19   ar
    19     6    20   ar
    20    20    21   ar
    21    21    22   ar
    22    22    23    1
    23    23    24   ar
    24    24    25   ar
    25    25    26   ar
    26    26    27   ar
    27    22     5   ar
    28    27    23   ar
    29    19    14   ar
    30     1    28    1
    31     1    29    1
    32     1    30    1
    33     3    31    1
    34     3    32    1
    35     4    33    1
    36     4    34    1
    37     8    35    1
    38     8    36    1
    39    11    37    1
    40    12    38    1
    41    12    39    1
    42    13    40    1
    43    13    41    1
    44    15    42    1
    45    16    43    1
    46    17    44    1
    47    18    45    1
    48    19    46    1
    49    24    47    1
    50    25    48    1
    51    26    49    1
