@<TRIPOS>MOLECULE
*****
 33 34 0 0 0
SMALL
GASTEIGER

@<TRIPOS>ATOM
      1 C          -5.5554    0.6849    0.9727 C.3     1  UNL1        0.0366
      2 O          -4.3736    0.8889    1.7373 O.3     1  UNL1       -0.3796
      3 C          -3.3442    1.5507    1.0026 C.3     1  UNL1        0.0813
      4 C          -2.5189    0.5719    0.1674 C.3     1  UNL1        0.1129
      5 O          -1.4774    1.3049   -0.4930 O.3     1  UNL1       -0.4882
      6 C          -0.7198    0.4690   -1.2728 C.ar    1  UNL1        0.1407
      7 C           0.3827   -0.1639   -0.6843 C.ar    1  UNL1        0.0042
      8 C           1.2189   -0.9993   -1.4351 C.ar    1  UNL1        0.0549
      9 N           2.3608   -1.6335   -0.9039 N.pl3   1  UNL1       -0.2911
     10 C           3.1752   -1.3356    0.1368 C.ar    1  UNL1        0.1860
     11 N           4.0673   -2.1999    0.5827 N.ar    1  UNL1       -0.1254
     12 N           4.8370   -1.7187    1.6189 N.ar    1  UNL1       -0.1355
     13 C           4.5289   -0.4761    1.9294 C.ar    1  UNL1        0.2062
     14 C           5.1695    0.3530    2.9891 C.3     1  UNL1        0.4425
     15 F           5.9878   -0.3654    3.8023 F       1  UNL1       -0.1639
     16 F           4.2536    0.9492    3.8017 F       1  UNL1       -0.1639
     17 F           5.9269    1.3550    2.4650 F       1  UNL1       -0.1639
     18 S           3.2746    0.1801    0.9552 S.2     1  UNL1       -0.0266
     19 C           0.9093   -1.1641   -2.8059 C.ar    1  UNL1        0.0637
     20 CL          1.8894   -2.1832   -3.8096 Cl      1  UNL1       -0.0816
     21 C          -0.1768   -0.5164   -3.4023 C.ar    1  UNL1       -0.0197
     22 C          -0.9871    0.3124   -2.6340 C.ar    1  UNL1        0.0840
     23 CL         -2.3105    1.1170   -3.3915 Cl      1  UNL1       -0.0797
     24 H          -6.2933    0.1918    1.6124 H       1  UNL1        0.0524
     25 H          -5.3587    0.0410    0.1108 H       1  UNL1        0.0524
     26 H          -5.9690    1.6426    0.6423 H       1  UNL1        0.0524
     27 H          -2.6852    2.0377    1.7309 H       1  UNL1        0.0593
     28 H          -3.7563    2.3555    0.3809 H       1  UNL1        0.0593
     29 H          -3.1630    0.0720   -0.5666 H       1  UNL1        0.0720
     30 H          -2.0950   -0.1991    0.8239 H       1  UNL1        0.0720
     31 H           0.5425   -0.0147    0.3788 H       1  UNL1        0.0674
     32 H           2.6396   -2.4564   -1.4354 H       1  UNL1        0.1541
     33 H          -0.3796   -0.6512   -4.4616 H       1  UNL1        0.0648
@<TRIPOS>BOND
     1     1     2    1
     2     2     3    1
     3     3     4    1
     4     4     5    1
     5     5     6    1
     6     6     7   ar
     7     7     8   ar
     8     8     9    1
     9     9    10    1
    10    10    11   ar
    11    11    12   ar
    12    12    13   ar
    13    13    14    1
    14    14    15    1
    15    14    16    1
    16    14    17    1
    17    13    18   ar
    18     8    19   ar
    19    19    20    1
    20    19    21   ar
    21    21    22   ar
    22    22    23    1
    23    22     6   ar
    24    18    10   ar
    25     1    24    1
    26     1    25    1
    27     1    26    1
    28     3    27    1
    29     3    28    1
    30     4    29    1
    31     4    30    1
    32     7    31    1
    33     9    32    1
    34    21    33    1
