@<TRIPOS>MOLECULE
*****
 40 45 0 0 0
SMALL
GASTEIGER

@<TRIPOS>ATOM
      1 SI          0.5429   -0.4796   -0.8818 Si      1  UNL1        0.0000
      2 C           1.7207    0.3198    0.3846 C.2     1  UNL1        0.0000
      3 C           0.9846    0.8662    1.3864 C.2     1  UNL1        0.0000
      4 C          -0.4741    0.7198    1.2646 C.ar    1  UNL1        0.0000
      5 C          -1.4148    1.1874    2.1500 C.ar    1  UNL1        0.0000
      6 N          -2.7386    1.0080    1.9595 N.ar    1  UNL1        0.0000
      7 C          -3.1737    0.3377    0.8485 C.ar    1  UNL1        0.0000
      8 C          -2.2722   -0.1775   -0.1149 C.ar    1  UNL1        0.0000
      9 N          -2.6555   -0.8425   -1.2217 N.ar    1  UNL1        0.0000
     10 C          -3.9732   -1.0217   -1.4124 C.ar    1  UNL1        0.0000
     11 C          -4.9477   -0.5634   -0.5402 C.ar    1  UNL1        0.0000
     12 C          -6.3149   -0.7758   -0.7838 C.ar    1  UNL1        0.0000
     13 C          -7.2556   -0.2996    0.1164 C.ar    1  UNL1        0.0000
     14 C          -6.7935    0.3719    1.2274 C.ar    1  UNL1        0.0000
     15 N          -5.4846    0.5878    1.4819 N.ar    1  UNL1        0.0000
     16 C          -4.5422    0.1312    0.6153 C.ar    1  UNL1        0.0000
     17 C          -0.9261    0.0332    0.1273 C.ar    1  UNL1        0.0000
     18 C           3.1927    0.3513    0.3084 C.ar    1  UNL1        0.0000
     19 C           3.9963    0.9794    1.3168 C.ar    1  UNL1        0.0000
     20 C           5.4330    1.0616    1.3309 C.ar    1  UNL1        0.0000
     21 C           6.2562    0.5225    0.3317 C.ar    1  UNL1        0.0000
     22 C           5.4879   -0.0864   -0.6467 C.ar    1  UNL1        0.0000
     23 C           6.0150   -0.7023   -1.7514 C.ar    1  UNL1        0.0000
     24 N           4.9537   -1.1788   -2.4766 N.ar    1  UNL1        0.0000
     25 C           3.7643   -0.8707   -1.8421 C.ar    1  UNL1        0.0000
     26 C           4.0481   -0.1819   -0.6835 C.ar    1  UNL1        0.0000
     27 H           0.7314   -1.9538   -0.9394 H       1  UNL1        0.0000
     28 H           0.6198    0.2064   -2.1992 H       1  UNL1        0.0000
     29 H           1.3781    1.3888    2.2475 H       1  UNL1        0.0000
     30 H          -1.1442    1.7271    3.0516 H       1  UNL1        0.0000
     31 H          -4.2299   -1.5636   -2.3193 H       1  UNL1        0.0000
     32 H          -6.6481   -1.3099   -1.6703 H       1  UNL1        0.0000
     33 H          -8.3174   -0.4474   -0.0432 H       1  UNL1        0.0000
     34 H          -7.4779    0.7702    1.9711 H       1  UNL1        0.0000
     35 H           3.5070    1.4500    2.1688 H       1  UNL1        0.0000
     36 H           5.9047    1.5740    2.1697 H       1  UNL1        0.0000
     37 H           7.3344    0.5855    0.3447 H       1  UNL1        0.0000
     38 H           7.0319   -0.8470   -2.0900 H       1  UNL1        0.0000
     39 H           5.0266   -1.6836   -3.3504 H       1  UNL1        0.0000
     40 H           2.8548   -1.1944   -2.3185 H       1  UNL1        0.0000
@<TRIPOS>BOND
     1     1     2    1
     2     2     3    2
     3     3     4    1
     4     4     5   ar
     5     5     6   ar
     6     6     7   ar
     7     7     8   ar
     8     8     9   ar
     9     9    10   ar
    10    10    11   ar
    11    11    12   ar
    12    12    13   ar
    13    13    14   ar
    14    14    15   ar
    15    15    16   ar
    16     8    17   ar
    17     2    18    1
    18    18    19   ar
    19    19    20   ar
    20    20    21   ar
    21    21    22   ar
    22    22    23   ar
    23    23    24   ar
    24    24    25   ar
    25    25    26   ar
    26    17     1    1
    27    26    18   ar
    28    17     4   ar
    29    26    22   ar
    30    16     7   ar
    31    16    11   ar
    32     1    27    1
    33     1    28    1
    34     3    29    1
    35     5    30    1
    36    10    31    1
    37    12    32    1
    38    13    33    1
    39    14    34    1
    40    19    35    1
    41    20    36    1
    42    21    37    1
    43    23    38    1
    44    24    39    1
    45    25    40    1
