@<TRIPOS>MOLECULE
*****
 37 42 0 0 0
SMALL
GASTEIGER

@<TRIPOS>ATOM
      1 SI          6.9778    0.8345    0.9799 Si      1  UNL1        0.0000
      2 C           5.5657    0.5383    2.2330 C.2     1  UNL1        0.0000
      3 C           4.3768    0.3760    1.6116 C.2     1  UNL1        0.0000
      4 C           4.4224    0.4541    0.1783 C.ar    1  UNL1        0.0000
      5 C           5.7003    0.7007   -0.3969 C.ar    1  UNL1        0.0000
      6 C           5.7158    0.7867   -1.7539 C.ar    1  UNL1        0.0000
      7 S           4.1178    0.5577   -2.3588 S.2     1  UNL1        0.0000
      8 C           3.4345    0.3470   -0.7755 C.ar    1  UNL1        0.0000
      9 C           2.0320    0.0713   -0.5947 C.ar    1  UNL1        0.0000
     10 C           1.4813   -0.9324    0.1729 C.ar    1  UNL1        0.0000
     11 C           0.0575   -0.9255    0.1571 C.ar    1  UNL1        0.0000
     12 N          -0.7229   -1.8079    0.8306 N.ar    1  UNL1        0.0000
     13 C          -2.0569   -1.6398    0.6889 C.ar    1  UNL1        0.0000
     14 C          -2.7126   -0.6599   -0.0706 C.ar    1  UNL1        0.0000
     15 C          -1.8733    0.2352   -0.7514 C.ar    1  UNL1        0.0000
     16 C          -2.4655    1.2335   -1.5238 C.ar    1  UNL1        0.0000
     17 N          -3.7989    1.3935   -1.6574 N.ar    1  UNL1        0.0000
     18 C          -4.6092    0.5436   -1.0116 C.ar    1  UNL1        0.0000
     19 C          -5.9775    0.7227   -1.1611 C.ar    1  UNL1        0.0000
     20 C          -6.9059   -0.1069   -0.5320 C.ar    1  UNL1        0.0000
     21 C          -6.4604   -1.1457    0.2697 C.ar    1  UNL1        0.0000
     22 C          -5.0900   -1.3471    0.4363 C.ar    1  UNL1        0.0000
     23 C          -4.1338   -0.5113   -0.1972 C.ar    1  UNL1        0.0000
     24 C          -0.4622    0.0977   -0.6337 C.ar    1  UNL1        0.0000
     25 S           0.8156    1.0215   -1.3310 S.2     1  UNL1        0.0000
     26 H           7.5552    2.1921    1.1391 H       1  UNL1        0.0000
     27 H           7.9554   -0.2815    1.0068 H       1  UNL1        0.0000
     28 H           5.7609    0.5228    3.2933 H       1  UNL1        0.0000
     29 H           3.4523    0.2092    2.1525 H       1  UNL1        0.0000
     30 H           6.5413    0.9667   -2.4293 H       1  UNL1        0.0000
     31 H           2.0654   -1.6575    0.7249 H       1  UNL1        0.0000
     32 H          -2.6233   -2.3782    1.2513 H       1  UNL1        0.0000
     33 H          -1.8771    1.9600   -2.0779 H       1  UNL1        0.0000
     34 H          -6.3329    1.5368   -1.7897 H       1  UNL1        0.0000
     35 H          -7.9700    0.0636   -0.6724 H       1  UNL1        0.0000
     36 H          -7.1741   -1.7992    0.7651 H       1  UNL1        0.0000
     37 H          -4.7814   -2.1723    1.0724 H       1  UNL1        0.0000
@<TRIPOS>BOND
     1     1     2    1
     2     2     3    2
     3     3     4    1
     4     4     5   ar
     5     5     6   ar
     6     6     7   ar
     7     7     8   ar
     8     8     9    1
     9     9    10   ar
    10    10    11   ar
    11    11    12   ar
    12    12    13   ar
    13    13    14   ar
    14    14    15   ar
    15    15    16   ar
    16    16    17   ar
    17    17    18   ar
    18    18    19   ar
    19    19    20   ar
    20    20    21   ar
    21    21    22   ar
    22    22    23   ar
    23    15    24   ar
    24    24    25   ar
    25     5     1    1
    26    25     9   ar
    27     8     4   ar
    28    24    11   ar
    29    23    14   ar
    30    23    18   ar
    31     1    26    1
    32     1    27    1
    33     2    28    1
    34     3    29    1
    35     6    30    1
    36    10    31    1
    37    13    32    1
    38    16    33    1
    39    19    34    1
    40    20    35    1
    41    21    36    1
    42    22    37    1
