@<TRIPOS>MOLECULE
*****
 31 31 0 0 0
SMALL
GASTEIGER

@<TRIPOS>ATOM
      1 C           6.4855   -0.5505   -1.0627 C.3     1  UNL1        0.0644
      2 O           6.0444    0.7552   -0.6965 O.3     1  UNL1       -0.2766
      3 N           5.7187    0.7050    0.6650 N.4     1  UNL1       -0.2574
      4 C           4.3596    0.7571    0.8959 C.2     1  UNL1        0.1079
      5 N           3.4209    0.3644    0.1027 N.am    1  UNL1       -0.1502
      6 C           2.1427    0.5119    0.5662 C.2     1  UNL1        0.3475
      7 O           1.8284    0.9396    1.6710 O.2     1  UNL1       -0.2485
      8 N           1.2457    0.0908   -0.3812 N.am    1  UNL1       -0.1763
      9 O          -0.0390   -0.2555    0.1089 O.3     1  UNL1       -0.2723
     10 C          -0.9483    0.8056   -0.2075 C.3     1  UNL1        0.1166
     11 C          -2.3686    0.3401    0.0099 C.ar    1  UNL1        0.0874
     12 N          -3.0516    0.9321    1.0326 N.ar    1  UNL1       -0.2555
     13 C          -4.3205    0.5288    1.2705 C.ar    1  UNL1        0.0397
     14 C          -4.9749   -0.4375    0.5244 C.ar    1  UNL1        0.0742
     15 C          -6.3733   -0.8379    0.8730 C.3     1  UNL1        0.4189
     16 F          -7.0635   -1.3404   -0.1881 F       1  UNL1       -0.1658
     17 F          -7.1219    0.1965    1.3451 F       1  UNL1       -0.1658
     18 F          -6.4130   -1.7994    1.8342 F       1  UNL1       -0.1658
     19 C          -4.2666   -1.0327   -0.5249 C.ar    1  UNL1       -0.0285
     20 C          -2.9534   -0.6420   -0.7919 C.ar    1  UNL1        0.0651
     21 CL         -2.1346   -1.3862   -2.1141 Cl      1  UNL1       -0.0816
     22 H           7.3658   -0.8361   -0.4775 H       1  UNL1        0.0549
     23 H           5.6848   -1.2847   -0.9275 H       1  UNL1        0.0549
     24 H           6.7631   -0.5317   -2.1202 H       1  UNL1        0.0549
     25 H           6.2702    1.3591    1.2161 H       1  UNL1        0.1949
     26 H           4.1574    1.1750    1.9003 H       1  UNL1        0.1017
     27 H           1.6428   -0.5456   -1.0602 H       1  UNL1        0.1841
     28 H          -0.7328    1.6595    0.4455 H       1  UNL1        0.0650
     29 H          -0.8228    1.1324   -1.2474 H       1  UNL1        0.0650
     30 H          -4.8052    1.0279    2.1079 H       1  UNL1        0.0835
     31 H          -4.7402   -1.8008   -1.1340 H       1  UNL1        0.0639
@<TRIPOS>BOND
     1     1     2    1
     2     2     3    1
     3     3     4    1
     4     4     5    2
     5     5     6    1
     6     6     7    2
     7     6     8   am
     8     8     9    1
     9     9    10    1
    10    10    11    1
    11    11    12   ar
    12    12    13   ar
    13    13    14   ar
    14    14    15    1
    15    15    16    1
    16    15    17    1
    17    15    18    1
    18    14    19   ar
    19    19    20   ar
    20    20    21    1
    21    20    11   ar
    22     1    22    1
    23     1    23    1
    24     1    24    1
    25     3    25    1
    26     4    26    1
    27     8    27    1
    28    10    28    1
    29    10    29    1
    30    13    30    1
    31    19    31    1
