@<TRIPOS>MOLECULE
*****
 29 30 0 0 0
SMALL
GASTEIGER

@<TRIPOS>ATOM
      1 C           4.3592    0.3035    0.4003 C.3     1  UNL1        0.0630
      2 S           3.3652   -1.1610    0.3033 S.O2    1  UNL1        0.0290
      3 O           3.7724   -1.8652   -0.9023 O.2     1  UNL1       -0.1667
      4 O           3.4319   -1.8007    1.6077 O.2     1  UNL1       -0.1667
      5 C           1.7039   -0.5489    0.0626 C.ar    1  UNL1        0.2707
      6 N           0.7462   -1.4825   -0.0555 N.ar    1  UNL1       -0.2164
      7 C          -0.4956   -1.0032   -0.2299 C.ar    1  UNL1        0.0501
      8 C          -0.7922    0.3574   -0.2878 C.ar    1  UNL1        0.0040
      9 C           0.2831    1.2401   -0.1782 C.ar    1  UNL1        0.1520
     10 C           0.0657    2.7459   -0.2643 C.3     1  UNL1        0.4346
     11 F          -0.6957    3.2246    0.7609 F       1  UNL1       -0.1644
     12 F          -0.5725    3.1206   -1.4103 F       1  UNL1       -0.1644
     13 F           1.2217    3.4686   -0.2344 F       1  UNL1       -0.1644
     14 N           1.5550    0.7891    0.0110 N.ar    1  UNL1       -0.2074
     15 C          -2.2223    0.7541   -0.5285 C.3     1  UNL1       -0.0240
     16 C          -3.1946   -0.0897    0.3039 C.3     1  UNL1       -0.0486
     17 C          -2.8305   -1.5769    0.4222 C.3     1  UNL1       -0.0473
     18 C          -1.6185   -1.9921   -0.4076 C.3     1  UNL1       -0.0100
     19 H           4.0332    0.9068    1.2498 H       1  UNL1        0.0469
     20 H           5.3971   -0.0040    0.5485 H       1  UNL1        0.0469
     21 H           4.2744    0.8611   -0.5344 H       1  UNL1        0.0469
     22 H          -2.4009    1.8080   -0.2955 H       1  UNL1        0.0314
     23 H          -2.4387    0.6241   -1.5964 H       1  UNL1        0.0314
     24 H          -4.2049    0.0139   -0.1102 H       1  UNL1        0.0269
     25 H          -3.2458    0.3281    1.3184 H       1  UNL1        0.0269
     26 H          -2.6259   -1.7949    1.4791 H       1  UNL1        0.0269
     27 H          -3.6939   -2.1955    0.1503 H       1  UNL1        0.0269
     28 H          -1.2939   -2.9962   -0.1117 H       1  UNL1        0.0328
     29 H          -1.8831   -2.0349   -1.4710 H       1  UNL1        0.0328
@<TRIPOS>BOND
     1     1     2    1
     2     2     3    2
     3     2     4    2
     4     2     5    1
     5     5     6   ar
     6     6     7   ar
     7     7     8   ar
     8     8     9   ar
     9     9    10    1
    10    10    11    1
    11    10    12    1
    12    10    13    1
    13     9    14   ar
    14     8    15    1
    15    15    16    1
    16    16    17    1
    17    17    18    1
    18    14     5   ar
    19    18     7    1
    20     1    19    1
    21     1    20    1
    22     1    21    1
    23    15    22    1
    24    15    23    1
    25    16    24    1
    26    16    25    1
    27    17    26    1
    28    17    27    1
    29    18    28    1
    30    18    29    1
