@<TRIPOS>MOLECULE
*****
 34 35 0 0 0
SMALL
GASTEIGER

@<TRIPOS>ATOM
      1 C           3.6033   -0.6269    1.3759 C.3     1  UNL1        0.0736
      2 S           3.5792   -1.1870   -0.3162 S.O2    1  UNL1        0.0403
      3 O           4.4633   -0.3441   -1.0914 O.2     1  UNL1       -0.1555
      4 O           3.7519   -2.6248   -0.3016 O.2     1  UNL1       -0.1555
      5 N           1.9717   -0.9174   -0.7746 N.pl3   1  UNL1       -0.2201
      6 C           1.4716    0.4323   -0.8151 C.ar    1  UNL1        0.0598
      7 C           2.0715    1.3784   -1.6512 C.ar    1  UNL1       -0.0386
      8 C           1.6079    2.6970   -1.6853 C.ar    1  UNL1       -0.0599
      9 C           0.5329    3.0843   -0.8885 C.ar    1  UNL1       -0.0609
     10 C          -0.0998    2.1452   -0.0763 C.ar    1  UNL1       -0.0478
     11 C           0.3437    0.8149   -0.0677 C.ar    1  UNL1        0.0592
     12 C          -0.3442   -0.1662    0.7965 C.2     1  UNL1        0.2484
     13 O           0.3353   -0.7727    1.6220 O.2     1  UNL1       -0.2699
     14 N          -1.6933   -0.3985    0.6053 N.am    1  UNL1       -0.2975
     15 C          -2.5091    0.0287   -0.5260 C.3     1  UNL1        0.0150
     16 C          -3.8948   -0.5233   -0.2229 C.3     1  UNL1       -0.0357
     17 C          -3.5901   -1.7980    0.5506 C.3     1  UNL1       -0.0357
     18 C          -2.3859   -1.4057    1.3947 C.3     1  UNL1        0.0150
     19 H           3.3549    0.4346    1.4126 H       1  UNL1        0.0482
     20 H           2.9013   -1.2235    1.9595 H       1  UNL1        0.0482
     21 H           4.6151   -0.7779    1.7594 H       1  UNL1        0.0482
     22 H           1.3747   -1.5826   -0.2718 H       1  UNL1        0.1733
     23 H           2.9056    1.1027   -2.2931 H       1  UNL1        0.0637
     24 H           2.0966    3.4221   -2.3327 H       1  UNL1        0.0618
     25 H           0.1882    4.1157   -0.9038 H       1  UNL1        0.0618
     26 H          -0.9314    2.4523    0.5534 H       1  UNL1        0.0626
     27 H          -2.5206    1.1152   -0.6293 H       1  UNL1        0.0465
     28 H          -2.0887   -0.4156   -1.4350 H       1  UNL1        0.0465
     29 H          -4.4849   -0.7002   -1.1262 H       1  UNL1        0.0281
     30 H          -4.4462    0.1755    0.4178 H       1  UNL1        0.0281
     31 H          -4.4328   -2.1459    1.1540 H       1  UNL1        0.0281
     32 H          -3.3138   -2.5970   -0.1479 H       1  UNL1        0.0281
     33 H          -2.6943   -0.9330    2.3336 H       1  UNL1        0.0465
     34 H          -1.7389   -2.2585    1.6211 H       1  UNL1        0.0465
@<TRIPOS>BOND
     1     1     2    1
     2     2     3    2
     3     2     4    2
     4     2     5    1
     5     5     6    1
     6     6     7   ar
     7     7     8   ar
     8     8     9   ar
     9     9    10   ar
    10    10    11   ar
    11    11    12    1
    12    12    13    2
    13    12    14   am
    14    14    15    1
    15    15    16    1
    16    16    17    1
    17    17    18    1
    18    11     6   ar
    19    18    14    1
    20     1    19    1
    21     1    20    1
    22     1    21    1
    23     5    22    1
    24     7    23    1
    25     8    24    1
    26     9    25    1
    27    10    26    1
    28    15    27    1
    29    15    28    1
    30    16    29    1
    31    16    30    1
    32    17    31    1
    33    17    32    1
    34    18    33    1
    35    18    34    1
