@<TRIPOS>MOLECULE
*****
 30 30 0 0 0
SMALL
GASTEIGER

@<TRIPOS>ATOM
      1 C           4.2347    0.0370   -1.2837 C.3     1  UNL1        0.0705
      2 S           3.8813    1.3117   -0.0905 S.O2    1  UNL1        0.0265
      3 O           3.3742    2.4691   -0.7905 O.2     1  UNL1       -0.1585
      4 O           5.0049    1.3957    0.8154 O.2     1  UNL1       -0.1585
      5 N           2.6290    0.6410    0.7935 N.3     1  UNL1       -0.1945
      6 C           1.3555    0.3335    0.1300 C.3     1  UNL1        0.0207
      7 C           0.2225    0.3809    1.1605 C.3     1  UNL1       -0.0175
      8 C          -1.1270    0.0464    0.5647 C.2     1  UNL1       -0.0722
      9 C          -2.0826    0.9827    0.4158 C.2     1  UNL1       -0.0847
     10 C          -3.4340    0.7133   -0.1808 C.3     1  UNL1       -0.0345
     11 C          -3.5236   -0.6411   -0.8837 C.3     1  UNL1       -0.0493
     12 C          -2.8382   -1.7291   -0.0654 C.3     1  UNL1       -0.0491
     13 C          -1.3633   -1.3946    0.1735 C.3     1  UNL1       -0.0317
     14 H           4.4708   -0.8878   -0.7543 H       1  UNL1        0.0479
     15 H           5.0985    0.3585   -1.8700 H       1  UNL1        0.0479
     16 H           3.3724   -0.0919   -1.9397 H       1  UNL1        0.0479
     17 H           2.9369    0.0257    1.5461 H       1  UNL1        0.1476
     18 H           1.1512    1.0517   -0.6712 H       1  UNL1        0.0444
     19 H           1.4287   -0.6658   -0.3119 H       1  UNL1        0.0444
     20 H           0.2009    1.3784    1.6194 H       1  UNL1        0.0323
     21 H           0.4326   -0.3152    1.9828 H       1  UNL1        0.0323
     22 H          -1.8975    2.0076    0.7322 H       1  UNL1        0.0572
     23 H          -3.6795    1.5047   -0.8980 H       1  UNL1        0.0307
     24 H          -4.1802    0.7640    0.6211 H       1  UNL1        0.0307
     25 H          -3.0488   -0.5754   -1.8710 H       1  UNL1        0.0268
     26 H          -4.5746   -0.9007   -1.0530 H       1  UNL1        0.0268
     27 H          -2.9183   -2.6937   -0.5792 H       1  UNL1        0.0268
     28 H          -3.3515   -1.8381    0.8986 H       1  UNL1        0.0268
     29 H          -0.7949   -1.6068   -0.7402 H       1  UNL1        0.0310
     30 H          -0.9800   -2.0615    0.9548 H       1  UNL1        0.0310
@<TRIPOS>BOND
     1     1     2    1
     2     2     3    2
     3     2     4    2
     4     2     5    1
     5     5     6    1
     6     6     7    1
     7     7     8    1
     8     8     9    2
     9     9    10    1
    10    10    11    1
    11    11    12    1
    12    12    13    1
    13    13     8    1
    14     1    14    1
    15     1    15    1
    16     1    16    1
    17     5    17    1
    18     6    18    1
    19     6    19    1
    20     7    20    1
    21     7    21    1
    22     9    22    1
    23    10    23    1
    24    10    24    1
    25    11    25    1
    26    11    26    1
    27    12    27    1
    28    12    28    1
    29    13    29    1
    30    13    30    1
