@<TRIPOS>MOLECULE
*****
 38 39 0 0 0
SMALL
GASTEIGER

@<TRIPOS>ATOM
      1 C          -6.1704    2.2829   -0.0048 C.3     1  UNL1       -0.0109
      2 S          -4.7012    1.6658    0.8360 S.3     1  UNL1       -0.0937
      3 C          -4.0371    0.6730   -0.4142 C.2     1  UNL1        0.1583
      4 N          -4.7902    0.0318   -1.2515 N.2     1  UNL1       -0.2615
      5 C          -3.8626   -0.6640   -2.1627 C.3     1  UNL1        0.0584
      6 C          -2.4946   -0.5500   -1.5256 C.3     1  UNL1        0.0415
      7 N          -2.6662    0.4808   -0.5357 N.am    1  UNL1       -0.2452
      8 C          -1.6266    1.0894    0.1603 C.2     1  UNL1        0.2523
      9 O          -1.6899    2.1466    0.7728 O.2     1  UNL1       -0.2696
     10 C          -0.2920    0.4567    0.0665 C.ar    1  UNL1        0.0374
     11 C           0.7429    1.1504   -0.5720 C.ar    1  UNL1       -0.0478
     12 C           2.0058    0.5655   -0.6759 C.ar    1  UNL1       -0.0346
     13 C           2.2299   -0.6958   -0.1115 C.ar    1  UNL1        0.1055
     14 S           3.8280   -1.4705   -0.2922 S.O2    1  UNL1        0.0604
     15 O           4.4510   -0.8882   -1.4625 O.2     1  UNL1       -0.1529
     16 O           3.6170   -2.9001   -0.1915 O.2     1  UNL1       -0.1529
     17 N           4.6736   -0.9491    1.0885 N.3     1  UNL1       -0.1827
     18 C           4.2344   -1.4844    2.3882 C.3     1  UNL1        0.0086
     19 C           5.0550    0.4733    1.1439 C.3     1  UNL1        0.0086
     20 C           1.1965   -1.3880    0.5335 C.ar    1  UNL1       -0.0346
     21 C          -0.0667   -0.8025    0.6351 C.ar    1  UNL1       -0.0478
     22 H          -6.8840    1.4729   -0.1963 H       1  UNL1        0.0345
     23 H          -6.6617    3.0260    0.6274 H       1  UNL1        0.0345
     24 H          -5.8937    2.7593   -0.9526 H       1  UNL1        0.0345
     25 H          -3.8893   -0.1787   -3.1446 H       1  UNL1        0.0525
     26 H          -4.1545   -1.7105   -2.2913 H       1  UNL1        0.0525
     27 H          -1.7163   -0.2865   -2.2492 H       1  UNL1        0.0487
     28 H          -2.2199   -1.4855   -1.0286 H       1  UNL1        0.0487
     29 H           0.5633    2.1392   -0.9907 H       1  UNL1        0.0626
     30 H           2.8040    1.0928   -1.1958 H       1  UNL1        0.0637
     31 H           5.0411   -1.3654    3.1258 H       1  UNL1        0.0408
     32 H           4.0149   -2.5584    2.3267 H       1  UNL1        0.0408
     33 H           3.3477   -0.9529    2.7498 H       1  UNL1        0.0408
     34 H           5.8629    0.6100    1.8749 H       1  UNL1        0.0408
     35 H           4.2064    1.0949    1.4414 H       1  UNL1        0.0408
     36 H           5.4396    0.8231    0.1805 H       1  UNL1        0.0408
     37 H           1.3687   -2.3781    0.9541 H       1  UNL1        0.0637
     38 H          -0.8661   -1.3259    1.1568 H       1  UNL1        0.0626
@<TRIPOS>BOND
     1     1     2    1
     2     2     3    1
     3     3     4    2
     4     4     5    1
     5     5     6    1
     6     6     7    1
     7     7     8   am
     8     8     9    2
     9     8    10    1
    10    10    11   ar
    11    11    12   ar
    12    12    13   ar
    13    13    14    1
    14    14    15    2
    15    14    16    2
    16    14    17    1
    17    17    18    1
    18    17    19    1
    19    13    20   ar
    20    20    21   ar
    21     7     3    1
    22    21    10   ar
    23     1    22    1
    24     1    23    1
    25     1    24    1
    26     5    25    1
    27     5    26    1
    28     6    27    1
    29     6    28    1
    30    11    29    1
    31    12    30    1
    32    18    31    1
    33    18    32    1
    34    18    33    1
    35    19    34    1
    36    19    35    1
    37    19    36    1
    38    20    37    1
    39    21    38    1
