@<TRIPOS>MOLECULE
*****
 31 32 0 0 0
SMALL
GASTEIGER

@<TRIPOS>ATOM
      1 C          -4.4306   -0.3867    1.4957 C.3     1  UNL1       -0.0135
      2 S          -3.5211   -1.7944    0.8012 S.3     1  UNL1       -0.1285
      3 C          -2.3653   -0.9779   -0.2902 C.ar    1  UNL1        0.0094
      4 C          -2.0313   -1.6230   -1.4873 C.ar    1  UNL1       -0.0482
      5 C          -1.1217   -1.0483   -2.3769 C.ar    1  UNL1       -0.0589
      6 C          -0.5271    0.1739   -2.0704 C.ar    1  UNL1       -0.0393
      7 C          -0.8380    0.8145   -0.8712 C.ar    1  UNL1        0.0491
      8 N          -0.1891    2.0441   -0.5649 N.pl3   1  UNL1       -0.2162
      9 S           0.8175    2.1457    0.7889 S.O2    1  UNL1        0.0723
     10 O           0.0485    1.8702    1.9835 O.2     1  UNL1       -0.1500
     11 O           1.5542    3.3842    0.6432 O.2     1  UNL1       -0.1500
     12 C           1.9629    0.8083    0.5400 C.ar    1  UNL1        0.1085
     13 C           1.7354   -0.4256    1.1569 C.ar    1  UNL1       -0.0351
     14 C           2.6426   -1.4667    0.9626 C.ar    1  UNL1       -0.0599
     15 C           3.7745   -1.2687    0.1698 C.ar    1  UNL1       -0.0616
     16 C           4.0078   -0.0287   -0.4278 C.ar    1  UNL1       -0.0599
     17 C           3.1042    1.0174   -0.2410 C.ar    1  UNL1       -0.0351
     18 C          -1.7548    0.2428    0.0143 C.ar    1  UNL1       -0.0259
     19 H          -4.7829    0.2780    0.7021 H       1  UNL1        0.0344
     20 H          -5.3002   -0.7634    2.0412 H       1  UNL1        0.0344
     21 H          -3.8066    0.1720    2.1978 H       1  UNL1        0.0344
     22 H          -2.4819   -2.5815   -1.7386 H       1  UNL1        0.0629
     23 H          -0.8748   -1.5589   -3.3044 H       1  UNL1        0.0618
     24 H           0.1873    0.6051   -2.7658 H       1  UNL1        0.0636
     25 H           0.1634    2.6045   -1.3389 H       1  UNL1        0.1737
     26 H           0.8590   -0.5847    1.7815 H       1  UNL1        0.0637
     27 H           2.4700   -2.4319    1.4331 H       1  UNL1        0.0618
     28 H           4.4821   -2.0820    0.0249 H       1  UNL1        0.0618
     29 H           4.8988    0.1225   -1.0325 H       1  UNL1        0.0618
     30 H           3.2988    1.9851   -0.6973 H       1  UNL1        0.0637
     31 H          -1.9817    0.7543    0.9445 H       1  UNL1        0.0647
@<TRIPOS>BOND
     1     1     2    1
     2     2     3    1
     3     3     4   ar
     4     4     5   ar
     5     5     6   ar
     6     6     7   ar
     7     7     8    1
     8     8     9    1
     9     9    10    2
    10     9    11    2
    11     9    12    1
    12    12    13   ar
    13    13    14   ar
    14    14    15   ar
    15    15    16   ar
    16    16    17   ar
    17     7    18   ar
    18    18     3   ar
    19    17    12   ar
    20     1    19    1
    21     1    20    1
    22     1    21    1
    23     4    22    1
    24     5    23    1
    25     6    24    1
    26     8    25    1
    27    13    26    1
    28    14    27    1
    29    15    28    1
    30    16    29    1
    31    17    30    1
    32    18    31    1
