@<TRIPOS>MOLECULE
*****
 29 30 0 0 0
SMALL
GASTEIGER

@<TRIPOS>ATOM
      1 C          -2.9519    2.3198    1.0673 C.3     1  UNL1       -0.0134
      2 S          -1.6800    1.2973    1.8591 S.3     1  UNL1       -0.1268
      3 C          -2.0261   -0.2805    1.0621 C.ar    1  UNL1        0.0288
      4 C          -3.2861   -0.8723    1.2282 C.ar    1  UNL1       -0.0465
      5 C          -3.5786   -2.0893    0.6149 C.ar    1  UNL1       -0.0606
      6 C          -2.6130   -2.7231   -0.1615 C.ar    1  UNL1       -0.0599
      7 C          -1.3477   -2.1504   -0.3202 C.ar    1  UNL1       -0.0394
      8 C          -1.0356   -0.9346    0.2943 C.ar    1  UNL1        0.0471
      9 N           0.2313   -0.3127    0.1815 N.am    1  UNL1       -0.2805
     10 C           1.3560   -0.7775   -0.4679 C.2     1  UNL1        0.2484
     11 O           1.4792   -1.8506   -1.0460 O.2     1  UNL1       -0.2699
     12 C           2.5365    0.1297   -0.4158 C.ar    1  UNL1        0.0399
     13 C           2.4046    1.5192   -0.4007 C.ar    1  UNL1       -0.0315
     14 C           3.5616    2.2770   -0.3593 C.ar    1  UNL1        0.0283
     15 N           4.8040    1.7499   -0.3369 N.ar    1  UNL1       -0.2632
     16 C           4.9018    0.4035   -0.3727 C.ar    1  UNL1        0.0283
     17 C           3.8095   -0.4418   -0.4162 C.ar    1  UNL1       -0.0315
     18 H          -2.8703    2.2577   -0.0214 H       1  UNL1        0.0344
     19 H          -3.9529    2.0088    1.3769 H       1  UNL1        0.0344
     20 H          -2.8080    3.3614    1.3670 H       1  UNL1        0.0344
     21 H          -4.0467   -0.3986    1.8433 H       1  UNL1        0.0629
     22 H          -4.5567   -2.5454    0.7455 H       1  UNL1        0.0618
     23 H          -2.8368   -3.6727   -0.6422 H       1  UNL1        0.0618
     24 H          -0.6244   -2.6835   -0.9293 H       1  UNL1        0.0636
     25 H           0.3075    0.5398    0.7266 H       1  UNL1        0.1552
     26 H           1.4418    2.0134   -0.4485 H       1  UNL1        0.0640
     27 H           3.5215    3.3629   -0.3497 H       1  UNL1        0.0830
     28 H           5.9147    0.0107   -0.3667 H       1  UNL1        0.0830
     29 H           3.9450   -1.5181   -0.4482 H       1  UNL1        0.0640
@<TRIPOS>BOND
     1     1     2    1
     2     2     3    1
     3     3     4   ar
     4     4     5   ar
     5     5     6   ar
     6     6     7   ar
     7     7     8   ar
     8     8     9    1
     9     9    10   am
    10    10    11    2
    11    10    12    1
    12    12    13   ar
    13    13    14   ar
    14    14    15   ar
    15    15    16   ar
    16    16    17   ar
    17     8     3   ar
    18    17    12   ar
    19     1    18    1
    20     1    19    1
    21     1    20    1
    22     4    21    1
    23     5    22    1
    24     6    23    1
    25     7    24    1
    26     9    25    1
    27    13    26    1
    28    14    27    1
    29    16    28    1
    30    17    29    1
