@<TRIPOS>MOLECULE
*****
 29 30 0 0 0
SMALL
GASTEIGER

@<TRIPOS>ATOM
      1 C           4.4310   -1.1502   -1.0263 C.3     1  UNL1       -0.0134
      2 S           4.0184   -0.3863    0.5618 S.3     1  UNL1       -0.1258
      3 C           2.3078   -0.2075    0.3678 C.ar    1  UNL1        0.0461
      4 C           1.4831   -1.2678    0.9570 C.ar    1  UNL1        0.0631
      5 N           0.1979   -1.3452    0.9181 N.ar    1  UNL1       -0.1705
      6 N          -0.4997   -0.3411    0.2759 N.ar    1  UNL1       -0.1958
      7 C          -1.9302   -0.5571    0.2765 C.ar    1  UNL1        0.0693
      8 C          -2.4758   -1.6637    0.9609 C.ar    1  UNL1       -0.0361
      9 C          -3.8531   -1.9137    0.9880 C.ar    1  UNL1       -0.0598
     10 C          -4.7265   -1.0616    0.3258 C.ar    1  UNL1       -0.0616
     11 C          -4.2193    0.0343   -0.3618 C.ar    1  UNL1       -0.0598
     12 C          -2.8389    0.2815   -0.3864 C.ar    1  UNL1       -0.0361
     13 C           0.1364    0.7776   -0.2955 C.ar    1  UNL1        0.2864
     14 O          -0.4386    1.7270   -0.8301 O.2     1  UNL1       -0.2646
     15 C           1.6480    0.7965   -0.2223 C.ar    1  UNL1        0.0889
     16 S           2.4577    2.1560   -0.9750 S.3     1  UNL1       -0.1222
     17 C           2.0506    3.4560    0.2155 C.3     1  UNL1       -0.0133
     18 H           5.5037   -1.3593   -1.0556 H       1  UNL1        0.0344
     19 H           3.8904   -2.0930   -1.1491 H       1  UNL1        0.0344
     20 H           4.1859   -0.4834   -1.8571 H       1  UNL1        0.0344
     21 H           2.0240   -2.0760    1.4786 H       1  UNL1        0.0859
     22 H          -1.8321   -2.3576    1.4964 H       1  UNL1        0.0639
     23 H          -4.2355   -2.7754    1.5287 H       1  UNL1        0.0618
     24 H          -5.7962   -1.2505    0.3429 H       1  UNL1        0.0618
     25 H          -4.8938    0.7058   -0.8877 H       1  UNL1        0.0618
     26 H          -2.5196    1.1481   -0.9544 H       1  UNL1        0.0639
     27 H           2.3816    3.1739    1.2190 H       1  UNL1        0.0344
     28 H           2.5663    4.3764   -0.0717 H       1  UNL1        0.0344
     29 H           0.9767    3.6566    0.2332 H       1  UNL1        0.0344
@<TRIPOS>BOND
     1     1     2    1
     2     2     3    1
     3     3     4   ar
     4     4     5   ar
     5     5     6   ar
     6     6     7    1
     7     7     8   ar
     8     8     9   ar
     9     9    10   ar
    10    10    11   ar
    11    11    12   ar
    12     6    13   ar
    13    13    14    2
    14    13    15   ar
    15    15    16    1
    16    16    17    1
    17    15     3   ar
    18    12     7   ar
    19     1    18    1
    20     1    19    1
    21     1    20    1
    22     4    21    1
    23     8    22    1
    24     9    23    1
    25    10    24    1
    26    11    25    1
    27    12    26    1
    28    17    27    1
    29    17    28    1
    30    17    29    1
