@<TRIPOS>MOLECULE
*****
 33 34 0 0 0
SMALL
GASTEIGER

@<TRIPOS>ATOM
      1 C           5.3281   -1.3720    0.9248 C.3     1  UNL1       -0.0120
      2 S           4.2951   -0.5962   -0.3467 S.3     1  UNL1       -0.1079
      3 C           2.9962    0.1364    0.6576 C.ar    1  UNL1        0.1202
      4 N           3.1029   -0.0496    1.9918 N.ar    1  UNL1       -0.2070
      5 C           2.1657    0.4914    2.7651 C.ar    1  UNL1        0.2146
      6 N           2.2661    0.2956    4.1237 N.pl3   1  UNL1       -0.3274
      7 N           1.1246    1.1833    2.3155 N.ar    1  UNL1       -0.2070
      8 C           1.0349    1.3536    0.9791 C.ar    1  UNL1        0.1209
      9 S          -0.3875    2.3150    0.4627 S.3     1  UNL1       -0.0965
     10 C          -1.6945    1.1341    0.9135 C.3     1  UNL1        0.0628
     11 C          -1.6311   -0.0839    0.0129 C.2     1  UNL1        0.1733
     12 O          -0.7951   -0.9712    0.1945 O.2     1  UNL1       -0.2912
     13 C          -2.5943   -0.2152   -1.1183 C.ar    1  UNL1        0.0182
     14 C          -2.8455   -1.4972   -1.6265 C.ar    1  UNL1       -0.0512
     15 C          -3.7384   -1.6738   -2.6848 C.ar    1  UNL1       -0.0611
     16 C          -4.3787   -0.5710   -3.2461 C.ar    1  UNL1       -0.0617
     17 C          -4.1227    0.7088   -2.7555 C.ar    1  UNL1       -0.0611
     18 C          -3.2302    0.8904   -1.6953 C.ar    1  UNL1       -0.0512
     19 C           1.9613    0.8513    0.0848 C.ar    1  UNL1        0.1154
     20 C           1.8405    1.0494   -1.3226 C.1     1  UNL1        0.1045
     21 N           1.7258    1.2299   -2.4642 N.1     1  UNL1       -0.1907
     22 H           6.1741   -1.8664    0.4392 H       1  UNL1        0.0344
     23 H           5.7219   -0.6222    1.6166 H       1  UNL1        0.0344
     24 H           4.7627   -2.1272    1.4777 H       1  UNL1        0.0344
     25 H           1.3608    0.3821    4.5640 H       1  UNL1        0.1452
     26 H           2.8023   -0.5362    4.3266 H       1  UNL1        0.1452
     27 H          -2.6694    1.6244    0.8504 H       1  UNL1        0.0461
     28 H          -1.5889    0.8066    1.9535 H       1  UNL1        0.0461
     29 H          -2.3450   -2.3656   -1.2018 H       1  UNL1        0.0625
     30 H          -3.9279   -2.6710   -3.0746 H       1  UNL1        0.0618
     31 H          -5.0692   -0.7076   -4.0751 H       1  UNL1        0.0618
     32 H          -4.6110    1.5689   -3.2082 H       1  UNL1        0.0618
     33 H          -3.0336    1.9049   -1.3610 H       1  UNL1        0.0625
@<TRIPOS>BOND
     1     1     2    1
     2     2     3    1
     3     3     4   ar
     4     4     5   ar
     5     5     6    1
     6     5     7   ar
     7     7     8   ar
     8     8     9    1
     9     9    10    1
    10    10    11    1
    11    11    12    2
    12    11    13    1
    13    13    14   ar
    14    14    15   ar
    15    15    16   ar
    16    16    17   ar
    17    17    18   ar
    18     8    19   ar
    19    19    20    1
    20    20    21    3
    21    19     3   ar
    22    18    13   ar
    23     1    22    1
    24     1    23    1
    25     1    24    1
    26     6    25    1
    27     6    26    1
    28    10    27    1
    29    10    28    1
    30    14    29    1
    31    15    30    1
    32    16    31    1
    33    17    32    1
    34    18    33    1
