@<TRIPOS>MOLECULE
*****
 41 44 0 0 0
SMALL
GASTEIGER

@<TRIPOS>ATOM
      1 C           2.4158    5.6079   -0.6753 C.3     1  UNL1       -0.0106
      2 S           3.2632    4.0106   -0.7394 S.3     1  UNL1       -0.0894
      3 C           1.8953    2.9105   -0.4324 C.ar    1  UNL1        0.1907
      4 N           2.2275    1.6240   -0.2378 N.ar    1  UNL1       -0.2065
      5 C           1.2652    0.7026   -0.0114 C.ar    1  UNL1        0.1320
      6 N           1.6233   -0.6307    0.1678 N.pl3   1  UNL1       -0.3213
      7 C           2.9782   -0.9973   -0.2251 C.3     1  UNL1        0.0686
      8 C           3.2033   -2.4742   -0.2461 C.ar    1  UNL1        0.1218
      9 C           3.4388   -3.3802   -1.2607 C.ar    1  UNL1       -0.0192
     10 C           3.5616   -4.6486   -0.6438 C.ar    1  UNL1       -0.0236
     11 C           3.3909   -4.4375    0.7039 C.ar    1  UNL1        0.0921
     12 O           3.1700   -3.1221    0.9553 O.2     1  UNL1       -0.4662
     13 C          -0.0772    1.1353    0.0385 C.ar    1  UNL1        0.0510
     14 C          -1.3369    0.4796    0.2983 C.ar    1  UNL1       -0.0222
     15 C          -2.4068    1.3505    0.1971 C.ar    1  UNL1        0.0097
     16 S          -1.9236    2.9391   -0.1550 S.2     1  UNL1       -0.0719
     17 C          -0.2796    2.4877   -0.1950 C.ar    1  UNL1        0.1149
     18 N           0.6601    3.4122   -0.4381 N.ar    1  UNL1       -0.2145
     19 C          -3.8452    0.9797    0.4196 C.3     1  UNL1        0.0303
     20 N          -4.0263   -0.4887    0.3461 N.3     1  UNL1       -0.3003
     21 C          -5.3788   -0.8496    0.7662 C.3     1  UNL1       -0.0124
     22 C          -3.0158   -1.1869    1.1687 C.3     1  UNL1        0.0030
     23 C          -1.5831   -0.9640    0.6298 C.3     1  UNL1       -0.0133
     24 H           3.1518    6.4050   -0.8129 H       1  UNL1        0.0345
     25 H           1.9320    5.7536    0.2946 H       1  UNL1        0.0345
     26 H           1.6739    5.6884   -1.4747 H       1  UNL1        0.0345
     27 H           0.9173   -1.2818   -0.1478 H       1  UNL1        0.1479
     28 H           3.1979   -0.6133   -1.2303 H       1  UNL1        0.0542
     29 H           3.7007   -0.5469    0.4670 H       1  UNL1        0.0542
     30 H           3.5143   -3.1505   -2.3146 H       1  UNL1        0.0652
     31 H           3.7522   -5.5997   -1.1207 H       1  UNL1        0.0649
     32 H           3.3975   -5.0831    1.5710 H       1  UNL1        0.1029
     33 H          -4.1550    1.3607    1.4020 H       1  UNL1        0.0481
     34 H          -4.4729    1.4549   -0.3440 H       1  UNL1        0.0481
     35 H          -5.5750   -0.5800    1.8102 H       1  UNL1        0.0391
     36 H          -6.1233   -0.3521    0.1349 H       1  UNL1        0.0391
     37 H          -5.5409   -1.9272    0.6529 H       1  UNL1        0.0391
     38 H          -3.2088   -2.2669    1.1695 H       1  UNL1        0.0430
     39 H          -3.0753   -0.8477    2.2121 H       1  UNL1        0.0430
     40 H          -0.8658   -1.3125    1.3808 H       1  UNL1        0.0326
     41 H          -1.4405   -1.5611   -0.2794 H       1  UNL1        0.0326
@<TRIPOS>BOND
     1     1     2    1
     2     2     3    1
     3     3     4   ar
     4     4     5   ar
     5     5     6    1
     6     6     7    1
     7     7     8    1
     8     8     9   ar
     9     9    10   ar
    10    10    11   ar
    11    11    12   ar
    12     5    13   ar
    13    13    14   ar
    14    14    15   ar
    15    15    16   ar
    16    16    17   ar
    17    17    18   ar
    18    15    19    1
    19    19    20    1
    20    20    21    1
    21    20    22    1
    22    22    23    1
    23    18     3   ar
    24    12     8   ar
    25    17    13   ar
    26    23    14    1
    27     1    24    1
    28     1    25    1
    29     1    26    1
    30     6    27    1
    31     7    28    1
    32     7    29    1
    33     9    30    1
    34    10    31    1
    35    11    32    1
    36    19    33    1
    37    19    34    1
    38    21    35    1
    39    21    36    1
    40    21    37    1
    41    22    38    1
    42    22    39    1
    43    23    40    1
    44    23    41    1
